REMARK  2 active torsions:
REMARK  status: ('A' for Active; 'I' for Inactive)
REMARK    1  A    between atoms: C3_3  and  C4_4 
REMARK    2  A    between atoms: C3_3  and  S9_9 
ROOT
HETATM    1  C1  UNL     1     -32.791   6.700   3.263  1.00 20.00     0.083 C 
HETATM    2  C3  UNL     1     -33.248   6.496   4.646  1.00 20.00     0.261 C 
HETATM    3  N5  UNL     1     -32.427   6.865   2.174  1.00 20.00    -0.196 NA
ENDROOT
BRANCH   2   4
HETATM    4  C4  UNL     1     -34.235   5.344   4.731  1.00 20.00     0.412 C 
HETATM    5  F6  UNL     1     -34.659   5.152   6.001  1.00 20.00    -0.169 F 
HETATM    6  F7  UNL     1     -35.334   5.597   3.982  1.00 20.00    -0.169 F 
HETATM    7  F8  UNL     1     -33.703   4.181   4.293  1.00 20.00    -0.169 F 
ENDBRANCH   2   4
BRANCH   2   8
HETATM    8  S9  UNL     1     -34.008   8.017   5.311  1.00 20.00    -0.145 SA
HETATM    9  C2  UNL     1     -33.859   7.626   7.068  1.00 20.00     0.091 C 
ENDBRANCH   2   8
TORSDOF 2
