REMARK  4 active torsions:
REMARK  status: ('A' for Active; 'I' for Inactive)
REMARK    1  A    between atoms: C6_6  and  C7_7 
REMARK    2  A    between atoms: C6_6  and  O10_10 
REMARK    3  A    between atoms: C7_7  and  C8_8 
REMARK    4  A    between atoms: C7_7  and  O9_9 
ROOT
HETATM    1  C7  UNL     1     -33.384   5.146   4.205  1.00 20.00     0.154 C 
ENDROOT
BRANCH   1   2
HETATM    2  C6  UNL     1     -33.109   5.610   2.758  1.00 20.00     0.146 C 
HETATM    3  C1  UNL     1     -32.565   4.491   1.872  1.00 20.00     0.042 C 
BRANCH   2   4
HETATM    4  O10 UNL     1     -32.168   6.678   2.731  1.00 20.00    -0.388 OA
HETATM    5  C5  UNL     1     -32.306   7.461   1.553  1.00 20.00     0.202 C 
ENDBRANCH   2   4
ENDBRANCH   1   2
BRANCH   1   6
HETATM    6  C8  UNL     1     -34.379   6.013   5.045  1.00 20.00    -0.023 C 
HETATM    7  C2  UNL     1     -33.800   7.442   5.170  1.00 20.00     0.017 C 
HETATM    8  C3  UNL     1     -35.745   6.115   4.344  1.00 20.00     0.017 C 
HETATM    9  C4  UNL     1     -34.591   5.476   6.473  1.00 20.00     0.017 C 
ENDBRANCH   1   6
BRANCH   1  10
HETATM   10  O9  UNL     1     -33.856   3.795   4.186  1.00 20.00    -0.392 OA
HETATM   11  H28 UNL     1     -34.668   3.799   3.659  1.00 20.00     0.210 HD
ENDBRANCH   1  10
TORSDOF 4
