REMARK  2 active torsions:
REMARK  status: ('A' for Active; 'I' for Inactive)
REMARK    1  A    between atoms: C7_7  and  C8_8 
REMARK    2  A    between atoms: C8_8  and  S9_9 
ROOT
HETATM    1  C1  UNL     1     -33.815   5.716   6.673  1.00 20.00     0.005 C 
HETATM    2  C2  UNL     1     -33.749   7.133   6.085  1.00 20.00     0.005 C 
HETATM    3  C3  UNL     1     -35.707   6.076   5.273  1.00 20.00     0.009 C 
HETATM    4  C4  UNL     1     -33.948   4.732   4.377  1.00 20.00     0.010 C 
HETATM    5  C5  UNL     1     -34.729   4.975   5.682  1.00 20.00    -0.014 C 
HETATM    6  C6  UNL     1     -34.593   7.017   4.804  1.00 20.00    -0.009 C 
HETATM    7  C7  UNL     1     -33.899   6.135   3.739  1.00 20.00    -0.001 C 
ENDROOT
BRANCH   7   8
HETATM    8  C8  UNL     1     -32.500   6.569   3.331  1.00 20.00     0.075 C 
BRANCH   8   9
HETATM    9  S9  UNL     1     -32.538   8.228   2.602  1.00 20.00    -0.182 SA
HETATM   10  H23 UNL     1     -31.222   8.310   2.362  1.00 20.00     0.101 HD
ENDBRANCH   8   9
ENDBRANCH   7   8
TORSDOF 2
