REMARK  3 active torsions:
REMARK  status: ('A' for Active; 'I' for Inactive)
REMARK    1  A    between atoms: C1_1  and  C10_10 
REMARK    2  A    between atoms: C8_8  and  C11_11 
REMARK    3  A    between atoms: C10_10  and  C11_11 
ROOT
HETATM    1  C2  UNL     1     -34.637   4.702   5.630  1.00 20.00     0.005 C 
HETATM    2  C3  UNL     1     -34.082   5.986   6.264  1.00 20.00     0.005 C 
HETATM    3  C4  UNL     1     -35.650   6.588   4.589  1.00 20.00     0.009 C 
HETATM    4  C5  UNL     1     -33.939   5.490   3.353  1.00 20.00     0.009 C 
HETATM    5  C6  UNL     1     -35.145   5.185   4.260  1.00 20.00    -0.014 C 
HETATM    6  C7  UNL     1     -34.305   7.040   5.163  1.00 20.00    -0.010 C 
HETATM    7  C8  UNL     1     -33.321   6.746   4.005  1.00 20.00    -0.010 C 
ENDROOT
BRANCH   7   8
HETATM    8  C11 UNL     1     -33.200   7.906   3.023  1.00 20.00     0.012 C 
BRANCH   8   9
HETATM    9  C10 UNL     1     -32.352   7.525   1.815  1.00 20.00     0.078 C 
BRANCH   9  10
HETATM   10  C1  UNL     1     -32.238   8.656   0.808  1.00 20.00     0.123 C 
HETATM   11  C9  UNL     1     -32.931   9.943   1.175  1.00 20.00     0.091 C 
HETATM   12  O12 UNL     1     -31.620   8.548  -0.250  1.00 20.00    -0.298 OA
ENDBRANCH   9  10
ENDBRANCH   8   9
ENDBRANCH   7   8
TORSDOF 3
