REMARK  3 active torsions:
REMARK  status: ('A' for Active; 'I' for Inactive)
REMARK    1  A    between atoms: C3_3  and  C5_5 
REMARK    2  A    between atoms: C6_6  and  C8_8 
REMARK    3  A    between atoms: C8_8  and  C9_9 
ROOT
HETATM    1  C1  UNL     1     -33.879   6.749   4.911  1.00 20.00     0.026 A 
HETATM    2  C2  UNL     1     -33.354   4.606   4.180  1.00 20.00     0.061 A 
HETATM    3  C3  UNL     1     -33.243   5.953   3.915  1.00 20.00    -0.029 A 
HETATM    4  C4  UNL     1     -34.452   5.979   5.900  1.00 20.00    -0.021 A 
HETATM    5  C7  UNL     1     -35.198   6.424   7.097  1.00 20.00     0.056 C 
HETATM    6  S10 UNL     1     -34.223   4.305   5.624  1.00 20.00    -0.106 SA
ENDROOT
BRANCH   3   7
HETATM    7  C5  UNL     1     -32.544   6.479   2.731  1.00 20.00     0.008 C 
HETATM    8  C6  UNL     1     -32.410   7.780   2.429  1.00 20.00    -0.025 C 
BRANCH   8   9
HETATM    9  C8  UNL     1     -31.694   8.274   1.202  1.00 20.00     0.042 C 
BRANCH   9  10
HETATM   10  C9  UNL     1     -32.618   9.010   0.237  1.00 20.00     0.118 C 
HETATM   11 CL11 UNL     1     -33.346  10.449   0.993  1.00 20.00    -0.130 Cl
ENDBRANCH   9  10
ENDBRANCH   8   9
ENDBRANCH   3   7
TORSDOF 3
