REMARK  4 active torsions:
REMARK  status: ('A' for Active; 'I' for Inactive)
REMARK    1  A    between atoms: C6_6  and  C7_7 
REMARK    2  A    between atoms: C6_6  and  O10_10 
REMARK    3  A    between atoms: C7_7  and  C8_8 
REMARK    4  A    between atoms: C7_7  and  O9_9 
ROOT
HETATM    1  C7  UNL     1     -33.463   6.726   4.791  1.00 20.00     0.154 C 
ENDROOT
BRANCH   1   2
HETATM    2  C6  UNL     1     -33.112   6.574   3.295  1.00 20.00     0.146 C 
HETATM    3  C1  UNL     1     -31.968   7.487   2.861  1.00 20.00     0.042 C 
BRANCH   2   4
HETATM    4  O10 UNL     1     -32.738   5.235   2.986  1.00 20.00    -0.388 OA
HETATM    5  C5  UNL     1     -32.944   4.942   1.612  1.00 20.00     0.202 C 
ENDBRANCH   2   4
ENDBRANCH   1   2
BRANCH   1   6
HETATM    6  C8  UNL     1     -34.645   5.860   5.337  1.00 20.00    -0.023 C 
HETATM    7  C2  UNL     1     -34.846   6.192   6.835  1.00 20.00     0.017 C 
HETATM    8  C3  UNL     1     -35.955   6.191   4.599  1.00 20.00     0.017 C 
HETATM    9  C4  UNL     1     -34.384   4.346   5.232  1.00 20.00     0.017 C 
ENDBRANCH   1   6
BRANCH   1  10
HETATM   10  O9  UNL     1     -33.753   8.099   5.071  1.00 20.00    -0.392 OA
HETATM   11  H28 UNL     1     -32.952   8.595   4.847  1.00 20.00     0.210 HD
ENDBRANCH   1  10
TORSDOF 4
