REMARK  3 active torsions:
REMARK  status: ('A' for Active; 'I' for Inactive)
REMARK    1  A    between atoms: C4_4  and  C9_9 
REMARK    2  A    between atoms: C7_7  and  C8_8 
REMARK    3  A    between atoms: C8_8  and  N11_11 
ROOT
HETATM    1  C1  UNL     1     -32.856   9.056  -0.104  1.00 20.00     0.060 C 
HETATM    2  C7  UNL     1     -32.347   8.034   0.823  1.00 20.00     0.151 C 
HETATM    3  N10 UNL     1     -33.257   9.861  -0.836  1.00 20.00    -0.197 NA
ENDROOT
BRANCH   2   4
HETATM    4  C8  UNL     1     -32.872   8.227   2.238  1.00 20.00     0.249 C 
BRANCH   4   5
HETATM    5  N11 UNL     1     -32.285   7.214   3.143  1.00 20.00    -0.069 N 
HETATM    6  C2  UNL     1     -32.967   5.909   3.024  1.00 20.00     0.241 C 
HETATM    7  C4  UNL     1     -32.919   5.814   4.564  1.00 20.00     0.041 C 
HETATM    8  C3  UNL     1     -32.789   7.352   4.524  1.00 20.00     0.241 C 
HETATM    9  H28 UNL     1     -31.260   7.150   3.083  1.00 20.00     0.279 HD
BRANCH   7  10
HETATM   10  C9  UNL     1     -34.143   5.249   5.253  1.00 20.00    -0.015 C 
HETATM   11  C5  UNL     1     -33.938   5.183   6.769  1.00 20.00     0.010 C 
HETATM   12  C6  UNL     1     -35.389   6.076   4.926  1.00 20.00     0.010 C 
ENDBRANCH   7  10
ENDBRANCH   4   5
ENDBRANCH   2   4
TORSDOF 3
