REMARK  3 active torsions:
REMARK  status: ('A' for Active; 'I' for Inactive)
REMARK    1  A    between atoms: C7_7  and  C9_9 
REMARK    2  A    between atoms: C8_8  and  O11_11 
REMARK    3  A    between atoms: C9_9  and  O11_11 
ROOT
HETATM    1  C1  UNL     1     -34.299   5.429   5.618  1.00 20.00     0.129 C 
HETATM    2  C2  UNL     1     -34.559   4.438   4.514  1.00 20.00     0.081 C 
HETATM    3  C3  UNL     1     -33.484   6.607   5.150  1.00 20.00     0.110 C 
HETATM    4  C4  UNL     1     -33.561   4.888   3.459  1.00 20.00     0.040 C 
HETATM    5  C8  UNL     1     -33.464   6.399   3.639  1.00 20.00     0.128 C 
HETATM    6  O10 UNL     1     -34.713   5.298   6.763  1.00 20.00    -0.298 OA
ENDROOT
BRANCH   5   7
HETATM    7  O11 UNL     1     -32.261   6.898   3.084  1.00 20.00    -0.385 OA
BRANCH   7   8
HETATM    8  C9  UNL     1     -32.309   8.308   2.922  1.00 20.00     0.172 C 
BRANCH   8   9
HETATM    9  C7  UNL     1     -33.085   8.633   1.663  1.00 20.00     0.009 A 
HETATM   10  C5  UNL     1     -32.934   9.977   1.006  1.00 20.00     0.007 A 
HETATM   11  C6  UNL     1     -32.373   8.749   0.344  1.00 20.00     0.007 A 
ENDBRANCH   8   9
ENDBRANCH   7   8
ENDBRANCH   5   7
TORSDOF 3
