REMARK  2 active torsions:
REMARK  status: ('A' for Active; 'I' for Inactive)
REMARK    1  A    between atoms: C2_2  and  C8_8 
REMARK    2  A    between atoms: C2_2  and  C9_9 
ROOT
HETATM    1  C1  UNL     1     -34.810   6.046   6.572  1.00 20.00     0.127 C 
HETATM    2  C3  UNL     1     -34.252   7.419   6.828  1.00 20.00     0.079 C 
HETATM    3  C4  UNL     1     -34.607   5.600   5.147  1.00 20.00     0.090 C 
HETATM    4  C5  UNL     1     -33.360   7.622   5.612  1.00 20.00     0.020 C 
HETATM    5  C8  UNL     1     -34.052   6.859   4.485  1.00 20.00     0.063 C 
HETATM    6  O10 UNL     1     -35.382   5.373   7.420  1.00 20.00    -0.298 OA
ENDROOT
BRANCH   5   7
HETATM    7  C2  UNL     1     -33.084   6.510   3.401  1.00 20.00     0.135 C 
HETATM    8  O11 UNL     1     -32.838   5.341   3.107  1.00 20.00    -0.297 OA
BRANCH   7   9
HETATM    9  C9  UNL     1     -32.423   7.659   2.688  1.00 20.00     0.056 A 
HETATM   10  C6  UNL     1     -31.933   7.436   1.303  1.00 20.00     0.013 A 
HETATM   11  C7  UNL     1     -33.145   8.284   1.549  1.00 20.00     0.013 A 
ENDBRANCH   7   9
ENDBRANCH   5   7
TORSDOF 2
