REMARK  3 active torsions:
REMARK  status: ('A' for Active; 'I' for Inactive)
REMARK    1  A    between atoms: C3_3  and  C9_9 
REMARK    2  A    between atoms: C7_7  and  O11_11 
REMARK    3  A    between atoms: C9_9  and  O11_11 
ROOT
HETATM    1  C1  UNL     1     -34.267   5.853   5.953  1.00 20.00     0.129 C 
HETATM    2  C4  UNL     1     -34.045   7.235   6.510  1.00 20.00     0.081 C 
HETATM    3  C5  UNL     1     -33.641   5.676   4.594  1.00 20.00     0.110 C 
HETATM    4  C6  UNL     1     -32.953   7.762   5.591  1.00 20.00     0.040 C 
HETATM    5  C7  UNL     1     -33.231   7.103   4.245  1.00 20.00     0.129 C 
HETATM    6  O10 UNL     1     -34.895   4.977   6.533  1.00 20.00    -0.298 OA
ENDROOT
BRANCH   5   7
HETATM    7  O11 UNL     1     -32.071   7.104   3.434  1.00 20.00    -0.382 OA
BRANCH   7   8
HETATM    8  C9  UNL     1     -32.386   6.828   2.076  1.00 20.00     0.195 C 
BRANCH   8   9
HETATM    9  C3  UNL     1     -32.898   8.078   1.439  1.00 20.00    -0.005 C 
HETATM   10  C2  UNL     1     -32.305   8.679   0.398  1.00 20.00    -0.033 C 
HETATM   11  C8  UNL     1     -32.811   9.931  -0.239  1.00 20.00     0.036 C 
ENDBRANCH   8   9
ENDBRANCH   7   8
ENDBRANCH   5   7
TORSDOF 3
