REMARK  4 active torsions:
REMARK  status: ('A' for Active; 'I' for Inactive)
REMARK    1  A    between atoms: C2_2  and  C7_7 
REMARK    2  A    between atoms: C2_2  and  O11_11 
REMARK    3  A    between atoms: C6_6  and  C7_7 
REMARK    4  A    between atoms: C6_6  and  C8_8 
ROOT
HETATM    1  C1  UNL     1     -32.804   5.111   2.783  1.00 20.00     0.074 C 
HETATM    2  C7  UNL     1     -33.207   6.444   3.269  1.00 20.00     0.192 C 
HETATM    3  N9  UNL     1     -32.489   4.063   2.397  1.00 20.00    -0.196 NA
ENDROOT
BRANCH   2   4
HETATM    4  C2  UNL     1     -32.171   7.485   2.870  1.00 20.00     0.276 C 
HETATM    5  O10 UNL     1     -31.569   8.214   3.648  1.00 20.00    -0.264 OA
BRANCH   4   6
HETATM    6  O11 UNL     1     -32.016   7.473   1.511  1.00 20.00    -0.325 OA
HETATM    7  C5  UNL     1     -31.061   8.403   0.991  1.00 20.00     0.213 C 
ENDBRANCH   4   6
ENDBRANCH   2   4
BRANCH   2   8
HETATM    8  C6  UNL     1     -33.370   6.457   4.799  1.00 20.00     0.033 C 
BRANCH   8   9
HETATM    9  C8  UNL     1     -34.383   5.438   5.363  1.00 20.00    -0.021 C 
HETATM   10  C3  UNL     1     -35.771   5.715   4.778  1.00 20.00     0.009 C 
HETATM   11  C4  UNL     1     -34.453   5.469   6.890  1.00 20.00     0.009 C 
ENDBRANCH   8   9
ENDBRANCH   2   8
TORSDOF 4
