REMARK  0 active torsions:
REMARK  status: ('A' for Active; 'I' for Inactive)
ROOT
HETATM    1  C1  UNL     1     -33.261   5.083   2.426  1.00 20.00     0.009 A 
HETATM    2  C2  UNL     1     -32.403   5.957   1.758  1.00 20.00     0.024 A 
HETATM    3  C3  UNL     1     -32.929   7.739   3.330  1.00 20.00     0.032 A 
HETATM    4  C4  UNL     1     -33.928   5.547   3.548  1.00 20.00    -0.050 A 
HETATM    5  C5  UNL     1     -33.759   6.860   4.010  1.00 20.00    -0.035 A 
HETATM    6  C6  UNL     1     -32.240   7.276   2.205  1.00 20.00     0.034 A 
HETATM    7  C7  UNL     1     -34.931   4.808   4.383  1.00 20.00     0.045 C 
HETATM    8  C8  UNL     1     -34.651   7.101   5.191  1.00 20.00     0.095 C 
HETATM    9  C9  UNL     1     -34.952   5.661   5.677  1.00 20.00     0.005 C 
HETATM   10  C10 UNL     1     -33.963   5.070   6.695  1.00 20.00     0.011 C 
HETATM   11 CL11 UNL     1     -31.174   8.336   1.363  1.00 20.00    -0.084 Cl
HETATM   12 BR12 UNL     1     -33.877   8.258   6.524  1.00 20.00    -0.086 Br
ENDROOT
TORSDOF 0
