REMARK  0 active torsions:
REMARK  status: ('A' for Active; 'I' for Inactive)
ROOT
HETATM    1  C1  UNL     1     -32.972   4.948   2.098  1.00 20.00     0.009 A 
HETATM    2  C2  UNL     1     -32.288   5.881   1.317  1.00 20.00     0.024 A 
HETATM    3  C3  UNL     1     -32.703   7.624   2.963  1.00 20.00     0.033 A 
HETATM    4  C4  UNL     1     -33.500   5.364   3.310  1.00 20.00    -0.050 A 
HETATM    5  C5  UNL     1     -33.362   6.689   3.747  1.00 20.00    -0.031 A 
HETATM    6  C6  UNL     1     -32.156   7.210   1.746  1.00 20.00     0.034 A 
HETATM    7  C7  UNL     1     -34.306   4.556   4.279  1.00 20.00     0.045 C 
HETATM    8  C8  UNL     1     -34.073   6.884   5.052  1.00 20.00     0.119 C 
HETATM    9  C9  UNL     1     -34.205   5.424   5.551  1.00 20.00     0.009 C 
HETATM   10  C10 UNL     1     -35.387   5.220   6.488  1.00 20.00     0.012 C 
HETATM   11 CL11 UNL     1     -31.304   8.341   0.765  1.00 20.00    -0.084 Cl
HETATM   12 CL12 UNL     1     -33.173   7.880   6.205  1.00 20.00    -0.119 Cl
ENDROOT
TORSDOF 0
