REMARK  1 active torsions:
REMARK  status: ('A' for Active; 'I' for Inactive)
REMARK    1  A    between atoms: C2_2  and  C3_3 
ROOT
HETATM    1  C1  UNL     1     -33.695   7.464   4.847  1.00 20.00    -0.034 C 
HETATM    2  C2  UNL     1     -32.611   7.951   4.228  1.00 20.00     0.194 C 
HETATM    3  C4  UNL     1     -34.025   7.819   6.275  1.00 20.00     0.038 C 
HETATM    4  C5  UNL     1     -34.637   6.498   4.186  1.00 20.00     0.042 C 
HETATM    5  C6  UNL     1     -34.908   6.756   6.944  1.00 20.00     0.009 C 
HETATM    6  C7  UNL     1     -34.747   5.165   4.963  1.00 20.00    -0.011 C 
HETATM    7  C8  UNL     1     -34.552   5.324   6.503  1.00 20.00    -0.014 C 
HETATM    8  C9  UNL     1     -33.861   4.088   4.331  1.00 20.00     0.010 C 
HETATM    9  C10 UNL     1     -33.163   4.934   7.026  1.00 20.00     0.010 C 
HETATM   10  F13 UNL     1     -31.802   8.781   4.921  1.00 20.00    -0.199 F 
ENDROOT
BRANCH   2  11
HETATM   11  C3  UNL     1     -32.260   7.602   2.778  1.00 20.00     0.239 C 
HETATM   12  O11 UNL     1     -32.758   8.392   1.923  1.00 20.00    -0.642 OA
HETATM   13  O12 UNL     1     -31.529   6.588   2.594  1.00 20.00    -0.642 OA
ENDBRANCH   2  11
TORSDOF 1
