REMARK  0 active torsions:
REMARK  status: ('A' for Active; 'I' for Inactive)
ROOT
HETATM    1  C1  UNL     1     -32.994   4.784   2.457  1.00 20.00     0.009 A 
HETATM    2  C2  UNL     1     -32.338   5.843   1.830  1.00 20.00     0.024 A 
HETATM    3  C3  UNL     1     -33.117   7.392   3.538  1.00 20.00     0.033 A 
HETATM    4  C4  UNL     1     -33.691   5.042   3.627  1.00 20.00    -0.050 A 
HETATM    5  C5  UNL     1     -33.748   6.332   4.172  1.00 20.00    -0.031 A 
HETATM    6  C6  UNL     1     -32.400   7.138   2.366  1.00 20.00     0.034 A 
HETATM    7  C7  UNL     1     -34.501   4.077   4.439  1.00 20.00     0.045 C 
HETATM    8  C8  UNL     1     -34.618   6.337   5.396  1.00 20.00     0.119 C 
HETATM    9  C9  UNL     1     -34.630   4.831   5.785  1.00 20.00     0.009 C 
HETATM   10  C10 UNL     1     -33.510   4.393   6.741  1.00 20.00     0.012 C 
HETATM   11 CL11 UNL     1     -31.577   8.428   1.574  1.00 20.00    -0.084 Cl
HETATM   12 CL12 UNL     1     -34.061   7.426   6.669  1.00 20.00    -0.119 Cl
ENDROOT
TORSDOF 0
