REMARK  0 active torsions:
REMARK  status: ('A' for Active; 'I' for Inactive)
ROOT
HETATM    1  C1  UNL     1     -33.109   4.762   2.269  1.00 20.00     0.009 A 
HETATM    2  C2  UNL     1     -32.588   5.665   1.342  1.00 20.00     0.019 A 
HETATM    3  C3  UNL     1     -32.512   7.417   3.029  1.00 20.00     0.028 A 
HETATM    4  C4  UNL     1     -33.338   5.205   3.562  1.00 20.00    -0.050 A 
HETATM    5  C5  UNL     1     -33.050   6.523   3.942  1.00 20.00    -0.032 A 
HETATM    6  C6  UNL     1     -32.290   6.983   1.720  1.00 20.00     0.011 A 
HETATM    7  C7  UNL     1     -33.840   4.404   4.724  1.00 20.00     0.045 C 
HETATM    8  C8  UNL     1     -33.333   6.719   5.401  1.00 20.00     0.119 C 
HETATM    9  C9  UNL     1     -34.271   5.523   5.696  1.00 20.00     0.009 C 
HETATM   10  C10 UNL     1     -34.227   5.076   7.150  1.00 20.00     0.012 C 
HETATM   11 CL11 UNL     1     -34.118   8.261   5.767  1.00 20.00    -0.119 Cl
HETATM   12 BR12 UNL     1     -31.587   8.186   0.440  1.00 20.00    -0.051 Br
ENDROOT
TORSDOF 0
