REMARK  0 active torsions:
REMARK  status: ('A' for Active; 'I' for Inactive)
ROOT
HETATM    1  C1  UNL     1     -33.888   7.503   6.066  1.00 20.00     0.086 C 
HETATM    2  C2  UNL     1     -32.329   6.929   2.599  1.00 20.00     0.003 C 
HETATM    3  C3  UNL     1     -32.412   5.409   2.557  1.00 20.00     0.001 C 
HETATM    4  C4  UNL     1     -32.528   7.480   4.011  1.00 20.00     0.042 C 
HETATM    5  C5  UNL     1     -33.690   4.882   3.210  1.00 20.00     0.012 C 
HETATM    6  C6  UNL     1     -33.816   6.967   4.691  1.00 20.00     0.132 C 
HETATM    7  C7  UNL     1     -33.902   5.396   4.662  1.00 20.00    -0.013 C 
HETATM    8  C8  UNL     1     -32.823   4.755   5.576  1.00 20.00     0.018 C 
HETATM    9  C9  UNL     1     -35.268   4.863   5.161  1.00 20.00     0.018 C 
HETATM   10  N10 UNL     1     -33.945   7.924   7.146  1.00 20.00    -0.195 NA
HETATM   11 CL11 UNL     1     -35.228   7.722   3.838  1.00 20.00    -0.102 Cl
ENDROOT
TORSDOF 0
