REMARK  2 active torsions:
REMARK  status: ('A' for Active; 'I' for Inactive)
REMARK    1  A    between atoms: C6_6  and  N11_11 
REMARK    2  A    between atoms: C10_10  and  N11_11 
ROOT
HETATM    1  C1  UNL     1     -32.323   8.495   0.382  1.00 20.00     0.013 C 
HETATM    2  C2  UNL     1     -32.254   7.970   1.459  1.00 20.00    -0.087 C 
HETATM    3  C10 UNL     1     -32.164   7.327   2.772  1.00 20.00     0.362 C 
ENDROOT
BRANCH   3   4
HETATM    4  N11 UNL     1     -33.235   7.789   3.645  1.00 20.00     0.099 N 
HETATM    5  H28 UNL     1     -32.983   8.699   4.031  1.00 20.00     0.317 HD
BRANCH   4   6
HETATM    6  C6  UNL     1     -33.461   6.851   4.734  1.00 20.00     0.229 C 
HETATM    7  C4  UNL     1     -34.205   7.488   5.909  1.00 20.00     0.036 C 
HETATM    8  C3  UNL     1     -34.837   6.314   6.662  1.00 20.00     0.003 C 
HETATM    9  C5  UNL     1     -34.638   5.075   5.784  1.00 20.00     0.011 C 
HETATM   10  C7  UNL     1     -34.312   5.612   4.378  1.00 20.00    -0.017 C 
HETATM   11  C8  UNL     1     -35.612   5.956   3.625  1.00 20.00     0.017 C 
HETATM   12  C9  UNL     1     -33.522   4.586   3.558  1.00 20.00     0.017 C 
ENDBRANCH   4   6
ENDBRANCH   3   4
TORSDOF 2
