REMARK  2 active torsions:
REMARK  status: ('A' for Active; 'I' for Inactive)
REMARK    1  A    between atoms: C3_3  and  C9_9 
REMARK    2  A    between atoms: C7_7  and  C9_9 
ROOT
HETATM    1  C4  UNL     1     -34.606   6.646   3.714  1.00 20.00     0.006 C 
HETATM    2  C5  UNL     1     -35.550   6.276   4.860  1.00 20.00     0.020 C 
HETATM    3  C6  UNL     1     -33.720   7.423   5.851  1.00 20.00     0.025 C 
HETATM    4  C7  UNL     1     -33.371   7.291   4.364  1.00 20.00    -0.007 C 
HETATM    5  C8  UNL     1     -34.687   6.275   6.115  1.00 20.00     0.082 C 
HETATM    6 CL12 UNL     1     -33.814   4.726   6.284  1.00 20.00    -0.125 Cl
ENDROOT
BRANCH   4   7
HETATM    7  C9  UNL     1     -32.990   8.620   3.731  1.00 20.00     0.071 C 
BRANCH   7   8
HETATM    8  C3  UNL     1     -32.664   8.471   2.268  1.00 20.00     0.074 A 
HETATM    9  N10 UNL     1     -32.122   7.400   1.732  1.00 20.00    -0.258 NA
HETATM   10  C1  UNL     1     -31.965   7.610   0.376  1.00 20.00     0.124 A 
HETATM   11  C2  UNL     1     -32.389   8.834  -0.098  1.00 20.00     0.070 A 
HETATM   12  S11 UNL     1     -33.013   9.767   1.199  1.00 20.00    -0.085 SA
ENDBRANCH   7   8
ENDBRANCH   4   7
TORSDOF 2
