REMARK  0 active torsions:
REMARK  status: ('A' for Active; 'I' for Inactive)
ROOT
HETATM    1  C1  UNL     1     -33.008   5.648   2.735  1.00 20.00     0.021 C 
HETATM    2  C2  UNL     1     -33.829   5.078   3.630  1.00 20.00     0.001 C 
HETATM    3  C3  UNL     1     -32.619   7.604   4.118  1.00 20.00     0.003 C 
HETATM    4  C4  UNL     1     -32.513   6.990   2.929  1.00 20.00     0.030 C 
HETATM    5  C5  UNL     1     -33.268   6.922   5.307  1.00 20.00     0.033 C 
HETATM    6  C6  UNL     1     -34.281   5.798   4.887  1.00 20.00     0.058 C 
HETATM    7  C7  UNL     1     -33.840   7.966   6.275  1.00 20.00     0.016 C 
HETATM    8  C8  UNL     1     -34.468   4.789   6.028  1.00 20.00     0.037 C 
HETATM    9 CL9  UNL     1     -31.720   7.761   1.606  1.00 20.00    -0.085 Cl
HETATM   10 CL10 UNL     1     -35.909   6.488   4.492  1.00 20.00    -0.115 Cl
ENDROOT
TORSDOF 0
