REMARK  2 active torsions:
REMARK  status: ('A' for Active; 'I' for Inactive)
REMARK    1  A    between atoms: C1_1  and  C5_5 
REMARK    2  A    between atoms: C1_1  and  C10_10 
ROOT
HETATM    1  C2  UNL     1     -33.607   7.203   6.626  1.00 20.00     0.002 C 
HETATM    2  C3  UNL     1     -32.914   7.444   5.285  1.00 20.00     0.013 C 
HETATM    3  C4  UNL     1     -35.027   6.760   6.286  1.00 20.00     0.010 C 
HETATM    4  C5  UNL     1     -33.901   6.992   4.203  1.00 20.00     0.063 C 
HETATM    5  C6  UNL     1     -34.898   6.058   4.924  1.00 20.00    -0.037 C 
HETATM    6  C7  UNL     1     -34.371   4.622   5.109  1.00 20.00     0.015 C 
HETATM    7  C8  UNL     1     -36.249   6.004   4.204  1.00 20.00     0.015 C 
ENDROOT
BRANCH   4   8
HETATM    8  C1  UNL     1     -33.207   6.356   3.038  1.00 20.00     0.131 C 
HETATM    9  O11 UNL     1     -33.463   5.201   2.701  1.00 20.00    -0.298 OA
BRANCH   8  10
HETATM   10  C10 UNL     1     -32.188   7.218   2.317  1.00 20.00     0.074 C 
HETATM   11  C9  UNL     1     -32.801   8.470   1.716  1.00 20.00     0.013 C 
ENDBRANCH   8  10
ENDBRANCH   4   8
TORSDOF 2
