REMARK  0 active torsions:
REMARK  status: ('A' for Active; 'I' for Inactive)
ROOT
HETATM    1  C1  UNL     1     -33.166   7.326   5.734  1.00 20.00     0.035 C 
HETATM    2  C2  UNL     1     -34.210   7.272   4.604  1.00 20.00     0.014 C 
HETATM    3  C3  UNL     1     -33.496   6.160   6.612  1.00 20.00     0.152 A 
HETATM    4  C4  UNL     1     -34.354   5.214   5.852  1.00 20.00     0.158 A 
HETATM    5  C5  UNL     1     -34.576   5.769   4.462  1.00 20.00    -0.019 C 
HETATM    6  C6  UNL     1     -33.634   5.078   3.466  1.00 20.00     0.017 C 
HETATM    7  C7  UNL     1     -36.027   5.588   4.016  1.00 20.00     0.017 C 
HETATM    8  O8  UNL     1     -34.880   5.989   6.939  1.00 20.00    -0.375 OA
ENDROOT
TORSDOF 0
