REMARK  1 active torsions:
REMARK  status: ('A' for Active; 'I' for Inactive)
REMARK    1  A    between atoms: C2_2  and  C5_5 
ROOT
HETATM    1  C1  UNL     1     -33.519   4.951   3.513  1.00 20.00     0.075 A 
HETATM    2  C2  UNL     1     -33.659   6.035   4.286  1.00 20.00     0.039 A 
HETATM    3  C3  UNL     1     -32.729   5.216   2.304  1.00 20.00     0.209 A 
HETATM    4  C4  UNL     1     -33.017   7.304   3.823  1.00 20.00     0.126 A 
HETATM    5  O6  UNL     1     -32.467   4.384   1.451  1.00 20.00    -0.281 OA
HETATM    6  S10 UNL     1     -32.212   6.889   2.249  1.00 20.00    -0.084 SA
ENDROOT
BRANCH   2   7
HETATM    7  C5  UNL     1     -34.416   6.049   5.573  1.00 20.00     0.414 C 
HETATM    8  F7  UNL     1     -34.394   7.276   6.137  1.00 20.00    -0.166 F 
HETATM    9  F8  UNL     1     -35.709   5.709   5.383  1.00 20.00    -0.166 F 
HETATM   10  F9  UNL     1     -33.890   5.180   6.462  1.00 20.00    -0.166 F 
ENDBRANCH   2   7
TORSDOF 1
