REMARK  0 active torsions:
REMARK  status: ('A' for Active; 'I' for Inactive)
ROOT
HETATM    1  C1  UNL     1     -33.551   6.749   5.706  1.00 20.00    -0.081 C 
HETATM    2  C2  UNL     1     -33.834   7.016   6.987  1.00 20.00     0.015 C 
HETATM    3  C3  UNL     1     -32.566   7.550   4.897  1.00 20.00     0.034 C 
HETATM    4  C4  UNL     1     -32.878   7.149   3.463  1.00 20.00     0.005 C 
HETATM    5  C5  UNL     1     -33.310   5.693   3.583  1.00 20.00     0.013 C 
HETATM    6  C6  UNL     1     -34.170   5.644   4.863  1.00 20.00    -0.025 C 
HETATM    7  C7  UNL     1     -35.639   5.966   4.541  1.00 20.00     0.019 C 
HETATM    8  C8  UNL     1     -34.076   4.259   5.513  1.00 20.00     0.019 C 
ENDROOT
TORSDOF 0
