REMARK  0 active torsions:
REMARK  status: ('A' for Active; 'I' for Inactive)
ROOT
HETATM    1  C1  UNL     1     -31.865   7.631   3.046  1.00 20.00     0.088 C 
HETATM    2  C2  UNL     1     -33.591   6.456   4.247  1.00 20.00    -0.062 C 
HETATM    3  C3  UNL     1     -32.709   6.511   3.234  1.00 20.00     0.097 C 
HETATM    4  C4  UNL     1     -33.685   7.620   5.212  1.00 20.00     0.036 C 
HETATM    5  C5  UNL     1     -33.525   7.158   6.658  1.00 20.00     0.004 C 
HETATM    6  C6  UNL     1     -34.505   6.043   7.005  1.00 20.00     0.001 C 
HETATM    7  C7  UNL     1     -34.383   4.871   6.029  1.00 20.00     0.013 C 
HETATM    8  C8  UNL     1     -34.526   5.273   4.536  1.00 20.00    -0.024 C 
HETATM    9  C9  UNL     1     -34.220   4.013   3.693  1.00 20.00     0.019 C 
HETATM   10  C10 UNL     1     -35.982   5.681   4.226  1.00 20.00     0.019 C 
HETATM   11  N11 UNL     1     -31.169   8.545   2.884  1.00 20.00    -0.192 NA
ENDROOT
TORSDOF 0
