REMARK  3 active torsions:
REMARK  status: ('A' for Active; 'I' for Inactive)
REMARK    1  A    between atoms: C1_1  and  C2_2 
REMARK    2  A    between atoms: C1_1  and  C3_3 
REMARK    3  A    between atoms: C3_3  and  O4_4 
ROOT
HETATM    1  C3  UNL     1     -34.573   4.732   4.896  1.00 20.00     0.216 C 
HETATM    2 CL6  UNL     1     -34.128   5.083   6.580  1.00 20.00    -0.096 Cl
ENDROOT
BRANCH   1   3
HETATM    3  C1  UNL     1     -33.492   5.170   3.915  1.00 20.00     0.079 C 
BRANCH   3   4
HETATM    4  C2  UNL     1     -33.167   6.652   3.977  1.00 20.00     0.226 C 
HETATM    5  F5  UNL     1     -32.173   6.913   3.085  1.00 20.00    -0.255 F 
ENDBRANCH   3   4
ENDBRANCH   1   3
BRANCH   1   6
HETATM    6  O4  UNL     1     -35.773   5.431   4.594  1.00 20.00    -0.380 OA
HETATM    7  H12 UNL     1     -36.439   5.130   5.235  1.00 20.00     0.211 HD
ENDBRANCH   1   6
TORSDOF 3
