REMARK  3 active torsions:
REMARK  status: ('A' for Active; 'I' for Inactive)
REMARK    1  A    between atoms: C1_1  and  C6_6 
REMARK    2  A    between atoms: C2_2  and  C7_7 
REMARK    3  A    between atoms: C5_5  and  C6_6 
ROOT
HETATM    1  C3  UNL     1     -35.058   5.610   6.172  1.00 20.00     0.124 A 
HETATM    2  C4  UNL     1     -34.557   6.890   6.281  1.00 20.00     0.070 A 
HETATM    3  C5  UNL     1     -33.713   5.586   4.440  1.00 20.00     0.085 A 
HETATM    4  N8  UNL     1     -34.576   4.861   5.117  1.00 20.00    -0.257 NA
HETATM    5  S9  UNL     1     -33.433   7.177   5.017  1.00 20.00    -0.084 SA
ENDROOT
BRANCH   3   6
HETATM    6  C6  UNL     1     -32.973   5.109   3.217  1.00 20.00     0.161 C 
BRANCH   6   7
HETATM    7  C1  UNL     1     -32.714   6.203   2.272  1.00 20.00    -0.099 C 
HETATM    8  C2  UNL     1     -32.503   7.101   1.503  1.00 20.00    -0.091 C 
BRANCH   8   9
HETATM    9  C7  UNL     1     -32.247   8.192   0.567  1.00 20.00     0.208 C 
HETATM   10 CL10 UNL     1     -32.648   9.730   1.356  1.00 20.00    -0.117 Cl
ENDBRANCH   8   9
ENDBRANCH   6   7
ENDBRANCH   3   6
TORSDOF 3
