REMARK  2 active torsions:
REMARK  status: ('A' for Active; 'I' for Inactive)
REMARK    1  A    between atoms: C5_5  and  C9_9 
REMARK    2  A    between atoms: C5_5  and  O10_10 
ROOT
HETATM    1  C1  UNL     1     -33.653   7.463   6.518  1.00 20.00     0.004 C 
HETATM    2  C2  UNL     1     -34.831   6.501   6.355  1.00 20.00     0.012 C 
HETATM    3  C3  UNL     1     -32.886   7.449   5.191  1.00 20.00     0.038 C 
HETATM    4  C4  UNL     1     -34.483   5.622   5.137  1.00 20.00    -0.017 C 
HETATM    5  C5  UNL     1     -33.761   6.647   4.219  1.00 20.00     0.064 C 
HETATM    6  C6  UNL     1     -35.759   5.036   4.515  1.00 20.00     0.018 C 
HETATM    7  C7  UNL     1     -33.577   4.455   5.577  1.00 20.00     0.018 C 
ENDROOT
BRANCH   5   8
HETATM    8  C9  UNL     1     -32.959   6.053   3.066  1.00 20.00     0.034 C 
HETATM    9  C8  UNL     1     -32.282   7.112   2.259  1.00 20.00     0.008 C 
ENDBRANCH   5   8
BRANCH   5  10
HETATM   10  O10 UNL     1     -34.728   7.544   3.658  1.00 20.00    -0.389 OA
HETATM   11  H28 UNL     1     -34.223   8.233   3.204  1.00 20.00     0.210 HD
ENDBRANCH   5  10
TORSDOF 2
