REMARK  1 active torsions:
REMARK  status: ('A' for Active; 'I' for Inactive)
REMARK    1  A    between atoms: C1_1  and  C4_4 
ROOT
HETATM    1  C1  UNL     1     -32.566   6.946   2.387  1.00 20.00    -0.079 C 
HETATM    2  C2  UNL     1     -32.492   7.980   1.781  1.00 20.00    -0.106 C 
HETATM    3  C7  UNL     1     -32.403   9.239   1.042  1.00 20.00     0.112 C 
ENDROOT
BRANCH   1   4
HETATM    4  C4  UNL     1     -32.650   5.721   3.105  1.00 20.00     0.070 C 
HETATM    5  C3  UNL     1     -33.688   5.431   3.887  1.00 20.00    -0.017 C 
HETATM    6  C5  UNL     1     -34.066   4.260   4.752  1.00 20.00     0.306 C 
HETATM    7  C6  UNL     1     -34.962   6.136   4.260  1.00 20.00     0.306 C 
HETATM    8  N8  UNL     1     -35.090   5.141   5.335  1.00 20.00     0.091 N 
HETATM    9  H17 UNL     1     -36.015   4.722   5.426  1.00 20.00     0.316 HD
ENDBRANCH   1   4
TORSDOF 1
