REMARK  0 active torsions:
REMARK  status: ('A' for Active; 'I' for Inactive)
ROOT
HETATM    1  C1  UNL     1     -32.831   7.324   3.463  1.00 20.00     0.098 C 
HETATM    2  C2  UNL     1     -33.306   7.447   5.862  1.00 20.00     0.160 A 
HETATM    3  C3  UNL     1     -33.467   6.921   4.652  1.00 20.00     0.063 A 
HETATM    4  C4  UNL     1     -34.452   5.831   4.827  1.00 20.00     0.225 A 
HETATM    5  N5  UNL     1     -32.306   7.656   2.483  1.00 20.00    -0.192 NA
HETATM    6  N6  UNL     1     -34.071   6.828   6.813  1.00 20.00    -0.166 NA
HETATM    7  N7  UNL     1     -34.747   5.898   6.285  1.00 20.00    -0.188 NA
ENDROOT
TORSDOF 0
