REMARK  2 active torsions:
REMARK  status: ('A' for Active; 'I' for Inactive)
REMARK    1  A    between atoms: C2_2  and  C3_3 
REMARK    2  A    between atoms: C3_3  and  C7_7 
ROOT
HETATM    1  C4  UNL     1     -33.634   6.056   6.791  1.00 20.00     0.084 C 
HETATM    2  C5  UNL     1     -34.808   5.215   6.322  1.00 20.00     0.085 C 
HETATM    3  C6  UNL     1     -34.572   7.551   4.603  1.00 20.00     0.097 C 
HETATM    4  C7  UNL     1     -34.252   6.304   3.789  1.00 20.00     0.131 C 
HETATM    5  S10 UNL     1     -33.637   7.760   6.154  1.00 20.00    -0.167 SA
HETATM    6  S11 UNL     1     -34.669   4.718   4.578  1.00 20.00    -0.155 SA
ENDROOT
BRANCH   4   7
HETATM    7  C3  UNL     1     -32.819   6.260   3.357  1.00 20.00     0.169 C 
HETATM    8  O9  UNL     1     -32.264   5.179   3.152  1.00 20.00    -0.291 OA
BRANCH   7   9
HETATM    9  C2  UNL     1     -32.057   7.539   3.174  1.00 20.00    -0.024 C 
HETATM   10  C1  UNL     1     -30.954   7.803   3.888  1.00 20.00     0.022 C 
HETATM   11  C8  UNL     1     -32.594   8.500   2.156  1.00 20.00     0.051 C 
ENDBRANCH   7   9
ENDBRANCH   4   7
TORSDOF 2
