REMARK  1 active torsions:
REMARK  status: ('A' for Active; 'I' for Inactive)
REMARK    1  A    between atoms: C2_2  and  C3_3 
ROOT
HETATM    1  C1  UNL     1     -32.582   6.679   3.187  1.00 20.00    -0.063 C 
HETATM    2  C2  UNL     1     -32.550   7.899   2.630  1.00 20.00     0.088 C 
HETATM    3  C4  UNL     1     -32.739   6.483   4.676  1.00 20.00     0.044 C 
HETATM    4  C5  UNL     1     -32.438   5.428   2.371  1.00 20.00     0.108 C 
HETATM    5  C6  UNL     1     -34.013   4.293   4.337  1.00 20.00     0.083 C 
HETATM    6  C7  UNL     1     -33.994   5.659   5.063  1.00 20.00    -0.036 C 
HETATM    7  C8  UNL     1     -35.281   6.460   4.767  1.00 20.00     0.016 C 
HETATM    8  C9  UNL     1     -33.948   5.394   6.583  1.00 20.00     0.016 C 
HETATM    9  S12 UNL     1     -33.930   4.404   2.517  1.00 20.00    -0.164 SA
ENDROOT
BRANCH   2  10
HETATM   10  C3  UNL     1     -32.391   8.092   1.119  1.00 20.00     0.198 C 
HETATM   11  O10 UNL     1     -33.489   8.129   0.490  1.00 20.00    -0.644 OA
HETATM   12  O11 UNL     1     -31.214   8.189   0.671  1.00 20.00    -0.644 OA
ENDBRANCH   2  10
TORSDOF 1
