REMARK  1 active torsions:
REMARK  status: ('A' for Active; 'I' for Inactive)
REMARK    1  A    between atoms: C7_7  and  C11_11 
ROOT
HETATM    1  C1  UNL     1     -31.405   8.779   0.948  1.00 20.00     0.030 C 
HETATM    2  C2  UNL     1     -32.257   7.570   0.607  1.00 20.00     0.036 C 
HETATM    3  C3  UNL     1     -33.759   6.138   2.098  1.00 20.00     0.305 C 
HETATM    4  C4  UNL     1     -31.975   9.226   2.277  1.00 20.00     0.235 C 
HETATM    5  C5  UNL     1     -33.345   7.989   4.012  1.00 20.00     0.271 C 
HETATM    6  C6  UNL     1     -32.413   6.840   1.939  1.00 20.00     0.216 C 
HETATM    7  C7  UNL     1     -33.607   6.567   4.522  1.00 20.00     0.251 C 
HETATM    8  C10 UNL     1     -33.433   4.306   3.654  1.00 20.00     0.310 C 
HETATM    9  N12 UNL     1     -34.013   5.633   3.453  1.00 20.00     0.092 N 
HETATM   10  N13 UNL     1     -32.242   7.924   2.994  1.00 20.00    -0.063 N 
HETATM   11  H36 UNL     1     -31.361   7.668   3.545  1.00 20.00     0.280 HD
ENDROOT
BRANCH   7  12
HETATM   12  C11 UNL     1     -34.705   6.598   5.587  1.00 20.00     0.012 C 
HETATM   13  C8  UNL     1     -35.003   5.187   6.080  1.00 20.00     0.012 C 
HETATM   14  C9  UNL     1     -34.296   7.503   6.742  1.00 20.00     0.012 C 
ENDBRANCH   7  12
TORSDOF 1
