REMARK  2 active torsions:
REMARK  status: ('A' for Active; 'I' for Inactive)
REMARK    1  A    between atoms: C2_2  and  C6_6 
REMARK    2  A    between atoms: C6_6  and  O9_9 
ROOT
HETATM    1  C3  UNL     1     -33.673   7.234   4.714  1.00 20.00     0.058 C 
HETATM    2  C4  UNL     1     -33.818   4.792   4.598  1.00 20.00     0.116 C 
HETATM    3  C5  UNL     1     -34.630   7.021   5.887  1.00 20.00     0.046 C 
HETATM    4  C6  UNL     1     -33.878   6.063   3.749  1.00 20.00     0.089 C 
HETATM    5  C8  UNL     1     -34.226   7.805   7.124  1.00 20.00     0.021 C 
HETATM    6  S10 UNL     1     -34.585   5.226   6.192  1.00 20.00    -0.161 SA
ENDROOT
BRANCH   4   7
HETATM    7  C2  UNL     1     -32.849   6.068   2.661  1.00 20.00    -0.058 C 
HETATM    8  C1  UNL     1     -32.297   7.206   2.214  1.00 20.00     0.017 C 
HETATM    9  C7  UNL     1     -32.472   4.729   2.102  1.00 20.00     0.046 C 
ENDBRANCH   4   7
BRANCH   4  10
HETATM   10  O9  UNL     1     -35.168   6.178   3.146  1.00 20.00    -0.385 OA
HETATM   11  H24 UNL     1     -35.266   5.412   2.560  1.00 20.00     0.211 HD
ENDBRANCH   4  10
TORSDOF 2
