REMARK  0 active torsions:
REMARK  status: ('A' for Active; 'I' for Inactive)
ROOT
HETATM    1  C1  UNL     1     -32.649   8.256   0.800  1.00 20.00     0.064 C 
HETATM    2  C2  UNL     1     -34.833   5.268   6.478  1.00 20.00     0.000 C 
HETATM    3  C3  UNL     1     -34.348   6.710   6.379  1.00 20.00     0.003 C 
HETATM    4  C4  UNL     1     -34.043   4.345   5.558  1.00 20.00     0.003 C 
HETATM    5  C5  UNL     1     -34.356   7.205   4.932  1.00 20.00     0.038 C 
HETATM    6  C6  UNL     1     -34.039   4.853   4.115  1.00 20.00     0.038 C 
HETATM    7  C7  UNL     1     -31.757   8.334   3.099  1.00 20.00     0.045 C 
HETATM    8  C8  UNL     1     -33.620   6.763   2.518  1.00 20.00     0.057 C 
HETATM    9  C9  UNL     1     -31.439   7.509   4.342  1.00 20.00     0.170 C 
HETATM   10  C10 UNL     1     -32.355   7.462   2.003  1.00 20.00     0.097 C 
HETATM   11  C11 UNL     1     -33.515   6.304   3.995  1.00 20.00     0.062 C 
HETATM   12  N12 UNL     1     -32.881   8.882  -0.149  1.00 20.00    -0.197 NA
HETATM   13  O13 UNL     1     -32.139   6.268   4.400  1.00 20.00    -0.380 OA
ENDROOT
TORSDOF 0
