REMARK  0 active torsions:
REMARK  status: ('A' for Active; 'I' for Inactive)
ROOT
HETATM    1  C1  UNL     1     -32.424   7.685   1.598  1.00 20.00     0.086 C 
HETATM    2  C2  UNL     1     -34.197   7.316   3.291  1.00 20.00     0.056 C 
HETATM    3  C3  UNL     1     -31.867   7.566   4.003  1.00 20.00     0.115 C 
HETATM    4  C4  UNL     1     -34.390   6.997   4.778  1.00 20.00     0.046 C 
HETATM    5  C5  UNL     1     -32.748   7.033   2.876  1.00 20.00     0.135 C 
HETATM    6  C6  UNL     1     -34.956   5.611   5.054  1.00 20.00     0.021 C 
HETATM    7  N7  UNL     1     -32.169   8.200   0.590  1.00 20.00    -0.195 NA
HETATM    8  S8  UNL     1     -32.749   7.191   5.545  1.00 20.00    -0.162 SA
HETATM    9 CL9  UNL     1     -32.465   5.281   2.619  1.00 20.00    -0.102 Cl
ENDROOT
TORSDOF 0
