REMARK  3 active torsions:
REMARK  status: ('A' for Active; 'I' for Inactive)
REMARK    1  A    between atoms: C4_4  and  C7_7 
REMARK    2  A    between atoms: C4_4  and  O9_9 
REMARK    3  A    between atoms: C7_7  and  C8_8 
ROOT
HETATM    1  C1  UNL     1     -34.334   7.185   3.580  1.00 20.00     0.053 C 
HETATM    2  C2  UNL     1     -32.398   7.699   4.994  1.00 20.00     0.112 C 
HETATM    3  C3  UNL     1     -34.721   6.325   4.785  1.00 20.00     0.046 C 
HETATM    4  C4  UNL     1     -32.812   7.359   3.564  1.00 20.00     0.067 C 
HETATM    5  C5  UNL     1     -34.717   4.827   4.504  1.00 20.00     0.021 C 
HETATM    6  S10 UNL     1     -33.499   6.733   6.072  1.00 20.00    -0.162 SA
ENDROOT
BRANCH   4   7
HETATM    7  C7  UNL     1     -32.378   8.448   2.585  1.00 20.00     0.038 C 
BRANCH   7   8
HETATM    8  C8  UNL     1     -32.780   8.098   1.157  1.00 20.00    -0.002 C 
HETATM    9  C6  UNL     1     -32.372   9.194   0.185  1.00 20.00     0.005 C 
ENDBRANCH   7   8
ENDBRANCH   4   7
BRANCH   4  10
HETATM   10  O9  UNL     1     -32.170   6.147   3.172  1.00 20.00    -0.389 OA
HETATM   11  H26 UNL     1     -31.217   6.324   3.183  1.00 20.00     0.210 HD
ENDBRANCH   4  10
TORSDOF 3
