REMARK  1 active torsions:
REMARK  status: ('A' for Active; 'I' for Inactive)
REMARK    1  A    between atoms: C4_4  and  S9_9 
ROOT
HETATM    1  C1  UNL     1     -34.202   7.074   5.079  1.00 20.00     0.025 C 
HETATM    2  C2  UNL     1     -32.394   6.904   3.292  1.00 20.00     0.088 C 
HETATM    3  C3  UNL     1     -33.773   4.675   4.202  1.00 20.00     0.082 C 
HETATM    4  C4  UNL     1     -32.715   7.246   4.751  1.00 20.00     0.054 C 
HETATM    5  C5  UNL     1     -34.634   5.581   5.115  1.00 20.00    -0.038 C 
HETATM    6  C6  UNL     1     -36.118   5.486   4.708  1.00 20.00     0.015 C 
HETATM    7  C7  UNL     1     -34.508   5.050   6.559  1.00 20.00     0.015 C 
HETATM    8  S8  UNL     1     -33.298   5.461   2.635  1.00 20.00    -0.167 SA
ENDROOT
BRANCH   4   9
HETATM    9  S9  UNL     1     -32.194   8.968   5.083  1.00 20.00    -0.177 SA
HETATM   10  H23 UNL     1     -30.921   8.787   4.714  1.00 20.00     0.102 HD
ENDBRANCH   4   9
TORSDOF 1
