REMARK  0 active torsions:
REMARK  status: ('A' for Active; 'I' for Inactive)
ROOT
HETATM    1  C1  UNL     1     -33.386   5.275   3.011  1.00 20.00     0.086 C 
HETATM    2  C2  UNL     1     -33.430   6.890   4.894  1.00 20.00     0.056 C 
HETATM    3  C3  UNL     1     -34.269   4.622   5.230  1.00 20.00     0.115 C 
HETATM    4  C4  UNL     1     -34.132   7.124   6.232  1.00 20.00     0.046 C 
HETATM    5  C5  UNL     1     -34.139   5.731   4.186  1.00 20.00     0.135 C 
HETATM    6  C6  UNL     1     -33.248   7.844   7.238  1.00 20.00     0.021 C 
HETATM    7  N7  UNL     1     -32.791   4.915   2.082  1.00 20.00    -0.195 NA
HETATM    8  S8  UNL     1     -34.580   5.457   6.817  1.00 20.00    -0.162 SA
HETATM    9 CL9  UNL     1     -35.756   6.236   3.591  1.00 20.00    -0.102 Cl
ENDROOT
TORSDOF 0
