REMARK  0 active torsions:
REMARK  status: ('A' for Active; 'I' for Inactive)
ROOT
HETATM    1  C1  UNL     1     -32.914   8.550   1.775  1.00 20.00     0.088 C 
HETATM    2  C2  UNL     1     -33.084   7.043   3.647  1.00 20.00    -0.057 C 
HETATM    3  C3  UNL     1     -33.286   8.257   3.110  1.00 20.00     0.097 C 
HETATM    4  C4  UNL     1     -32.447   5.944   2.824  1.00 20.00     0.037 C 
HETATM    5  C5  UNL     1     -33.375   4.740   2.660  1.00 20.00     0.014 C 
HETATM    6  C6  UNL     1     -33.807   4.126   3.988  1.00 20.00     0.075 C 
HETATM    7  C7  UNL     1     -33.431   6.653   5.070  1.00 20.00     0.072 C 
HETATM    8  C8  UNL     1     -33.953   7.770   5.977  1.00 20.00     0.026 C 
HETATM    9  N9  UNL     1     -32.613   8.798   0.683  1.00 20.00    -0.192 NA
HETATM   10  S10 UNL     1     -34.694   5.323   5.031  1.00 20.00    -0.160 SA
ENDROOT
TORSDOF 0
