REMARK  3 active torsions:
REMARK  status: ('A' for Active; 'I' for Inactive)
REMARK    1  A    between atoms: C6_6  and  C9_9 
REMARK    2  A    between atoms: C6_6  and  O10_10 
REMARK    3  A    between atoms: C8_8  and  C9_9 
ROOT
HETATM    1  C1  UNL     1     -32.510   9.714  -0.431  1.00 20.00     0.012 C 
HETATM    2  C2  UNL     1     -32.452   8.827   0.375  1.00 20.00    -0.117 C 
HETATM    3  C8  UNL     1     -32.378   7.738   1.359  1.00 20.00     0.096 C 
ENDROOT
BRANCH   3   4
HETATM    4  C9  UNL     1     -33.202   8.082   2.586  1.00 20.00     0.050 C 
BRANCH   4   5
HETATM    5  C6  UNL     1     -33.128   6.963   3.620  1.00 20.00     0.068 C 
HETATM    6  C3  UNL     1     -33.992   7.273   4.845  1.00 20.00     0.053 C 
HETATM    7  C5  UNL     1     -34.043   6.007   5.700  1.00 20.00     0.046 C 
HETATM    8  C7  UNL     1     -35.238   5.982   6.639  1.00 20.00     0.021 C 
HETATM    9  S11 UNL     1     -34.117   4.640   4.497  1.00 20.00    -0.162 SA
HETATM   10  C4  UNL     1     -33.636   5.639   3.052  1.00 20.00     0.112 C 
BRANCH   5  11
HETATM   11  O10 UNL     1     -31.757   6.840   4.001  1.00 20.00    -0.389 OA
HETATM   12  H25 UNL     1     -31.265   6.646   3.189  1.00 20.00     0.210 HD
ENDBRANCH   5  11
ENDBRANCH   4   5
ENDBRANCH   3   4
TORSDOF 3
