REMARK  0 active torsions:
REMARK  status: ('A' for Active; 'I' for Inactive)
ROOT
HETATM    1  C1  UNL     1     -32.605   7.694   3.387  1.00 20.00     0.086 C 
HETATM    2  C2  UNL     1     -34.593   6.612   6.500  1.00 20.00     0.013 C 
HETATM    3  C3  UNL     1     -33.656   7.390   5.576  1.00 20.00     0.043 C 
HETATM    4  C4  UNL     1     -34.215   5.145   6.627  1.00 20.00     0.074 C 
HETATM    5  C5  UNL     1     -33.185   5.371   4.060  1.00 20.00     0.081 C 
HETATM    6  C6  UNL     1     -33.586   6.869   4.125  1.00 20.00     0.137 C 
HETATM    7  C7  UNL     1     -33.105   4.786   2.644  1.00 20.00     0.024 C 
HETATM    8  N8  UNL     1     -31.834   8.340   2.809  1.00 20.00    -0.195 NA
HETATM    9  S9  UNL     1     -34.307   4.292   5.032  1.00 20.00    -0.162 SA
HETATM   10 CL10 UNL     1     -35.166   7.172   3.307  1.00 20.00    -0.102 Cl
ENDROOT
TORSDOF 0
