REMARK  1 active torsions:
REMARK  status: ('A' for Active; 'I' for Inactive)
REMARK    1  A    between atoms: C4_4  and  S9_9 
ROOT
HETATM    1  C1  UNL     1     -33.977   4.598   4.740  1.00 20.00     0.020 C 
HETATM    2  C2  UNL     1     -34.869   4.959   5.922  1.00 20.00     0.075 C 
HETATM    3  C3  UNL     1     -33.967   7.537   5.562  1.00 20.00     0.089 C 
HETATM    4  C4  UNL     1     -33.141   6.983   4.394  1.00 20.00     0.061 C 
HETATM    5  C5  UNL     1     -33.764   5.729   3.695  1.00 20.00    -0.034 C 
HETATM    6  C6  UNL     1     -35.106   6.037   2.993  1.00 20.00     0.016 C 
HETATM    7  C7  UNL     1     -32.794   5.171   2.625  1.00 20.00     0.016 C 
HETATM    8  S8  UNL     1     -34.174   6.319   6.893  1.00 20.00    -0.168 SA
ENDROOT
BRANCH   4   9
HETATM    9  S9  UNL     1     -32.820   8.386   3.246  1.00 20.00    -0.176 SA
HETATM   10  H23 UNL     1     -32.168   9.123   4.150  1.00 20.00     0.102 HD
ENDBRANCH   4   9
TORSDOF 1
