REMARK  1 active torsions:
REMARK  status: ('A' for Active; 'I' for Inactive)
REMARK    1  A    between atoms: C5_5  and  O9_9 
ROOT
HETATM    1  C1  UNL     1     -32.935   6.957   3.636  1.00 20.00     0.022 C 
HETATM    2  C2  UNL     1     -32.425   7.534   4.953  1.00 20.00     0.075 C 
HETATM    3  C3  UNL     1     -34.280   5.890   6.159  1.00 20.00     0.112 C 
HETATM    4  C4  UNL     1     -33.498   5.513   3.717  1.00 20.00    -0.015 C 
HETATM    5  C5  UNL     1     -34.680   5.408   4.750  1.00 20.00     0.069 C 
HETATM    6  C6  UNL     1     -33.962   5.108   2.296  1.00 20.00     0.018 C 
HETATM    7  C7  UNL     1     -32.350   4.536   4.084  1.00 20.00     0.018 C 
HETATM    8  C8  UNL     1     -35.961   6.131   4.287  1.00 20.00     0.047 C 
HETATM    9  S10 UNL     1     -33.715   7.613   6.222  1.00 20.00    -0.166 SA
ENDROOT
BRANCH   5  10
HETATM   10  O9  UNL     1     -35.036   4.020   4.877  1.00 20.00    -0.389 OA
HETATM   11  H26 UNL     1     -35.774   3.993   5.501  1.00 20.00     0.210 HD
ENDBRANCH   5  10
TORSDOF 1
