REMARK  0 active torsions:
REMARK  status: ('A' for Active; 'I' for Inactive)
ROOT
HETATM    1  C1  UNL     1     -34.557   7.376   3.941  1.00 20.00     0.056 C 
HETATM    2  C2  UNL     1     -35.030   5.993   4.343  1.00 20.00     0.094 C 
HETATM    3  C3  UNL     1     -33.035   7.237   3.812  1.00 20.00     0.056 C 
HETATM    4  C4  UNL     1     -33.968   5.068   3.746  1.00 20.00     0.068 C 
HETATM    5  C5  UNL     1     -32.510   7.924   2.550  1.00 20.00     0.045 C 
HETATM    6  C6  UNL     1     -32.286   7.786   5.030  1.00 20.00     0.045 C 
HETATM    7  C7  UNL     1     -33.697   3.755   4.482  1.00 20.00     0.047 C 
HETATM    8  C8  UNL     1     -34.326   4.729   2.286  1.00 20.00     0.047 C 
HETATM    9  O9  UNL     1     -32.743   5.829   3.719  1.00 20.00    -0.369 OA
HETATM   10 BR10 UNL     1     -35.193   5.903   6.288  1.00 20.00    -0.088 Br
ENDROOT
TORSDOF 0
