REMARK  2 active torsions:
REMARK  status: ('A' for Active; 'I' for Inactive)
REMARK    1  A    between atoms: C5_5  and  N9_9 
REMARK    2  A    between atoms: C8_8  and  N9_9 
ROOT
HETATM    1  C1  UNL     1     -32.894   8.542   0.057  1.00 20.00     0.013 C 
HETATM    2  C2  UNL     1     -32.414   8.424   1.151  1.00 20.00    -0.087 C 
HETATM    3  C8  UNL     1     -31.828   8.285   2.487  1.00 20.00     0.362 C 
ENDROOT
BRANCH   3   4
HETATM    4  N9  UNL     1     -31.793   6.886   2.890  1.00 20.00     0.099 N 
HETATM    5  H23 UNL     1     -31.107   6.769   3.636  1.00 20.00     0.317 HD
BRANCH   4   6
HETATM    6  C5  UNL     1     -33.082   6.454   3.361  1.00 20.00     0.232 C 
HETATM    7  C3  UNL     1     -33.335   6.880   4.804  1.00 20.00     0.051 C 
HETATM    8  C6  UNL     1     -34.646   6.221   5.222  1.00 20.00     0.045 C 
HETATM    9  C7  UNL     1     -34.806   6.136   6.730  1.00 20.00     0.021 C 
HETATM   10  S10 UNL     1     -34.589   4.566   4.461  1.00 20.00    -0.162 SA
HETATM   11  C4  UNL     1     -33.211   4.937   3.339  1.00 20.00     0.109 C 
ENDBRANCH   4   6
ENDBRANCH   3   4
TORSDOF 2
