REMARK  0 active torsions:
REMARK  status: ('A' for Active; 'I' for Inactive)
ROOT
HETATM    1  C1  UNL     1     -33.644   7.079   5.393  1.00 20.00    -0.053 C 
HETATM    2  C2  UNL     1     -34.203   7.656   6.463  1.00 20.00     0.017 C 
HETATM    3  C3  UNL     1     -32.411   7.567   4.712  1.00 20.00     0.073 C 
HETATM    4  C4  UNL     1     -34.169   5.913   4.599  1.00 20.00     0.077 C 
HETATM    5  C5  UNL     1     -32.710   7.195   3.261  1.00 20.00     0.059 C 
HETATM    6  C6  UNL     1     -33.757   4.581   5.231  1.00 20.00     0.051 C 
HETATM    7  C7  UNL     1     -35.679   5.938   4.352  1.00 20.00     0.051 C 
HETATM    8  C8  UNL     1     -33.509   8.283   2.532  1.00 20.00     0.046 C 
HETATM    9  C9  UNL     1     -31.433   6.885   2.484  1.00 20.00     0.046 C 
HETATM   10  O10 UNL     1     -33.507   5.994   3.314  1.00 20.00    -0.366 OA
ENDROOT
TORSDOF 0
