REMARK  1 active torsions:
REMARK  status: ('A' for Active; 'I' for Inactive)
REMARK    1  A    between atoms: C5_5  and  O9_9 
ROOT
HETATM    1  C1  UNL     1     -35.195   6.159   4.291  1.00 20.00     0.098 C 
HETATM    2  C2  UNL     1     -32.938   5.094   4.241  1.00 20.00     0.069 C 
HETATM    3  C3  UNL     1     -33.127   7.493   4.677  1.00 20.00     0.128 C 
HETATM    4  C4  UNL     1     -32.412   5.592   2.893  1.00 20.00     0.047 C 
HETATM    5  C5  UNL     1     -33.842   6.159   4.870  1.00 20.00     0.157 C 
HETATM    6  C6  UNL     1     -33.296   5.227   1.707  1.00 20.00     0.021 C 
HETATM    7  N8  UNL     1     -36.261   6.160   3.835  1.00 20.00    -0.194 NA
HETATM    8  S10 UNL     1     -32.290   7.401   3.067  1.00 20.00    -0.161 SA
ENDROOT
BRANCH   5   9
HETATM    9  O9  UNL     1     -33.946   5.878   6.265  1.00 20.00    -0.369 OA
HETATM   10  C7  UNL     1     -34.734   6.852   6.932  1.00 20.00     0.204 C 
ENDBRANCH   5   9
TORSDOF 1
