REMARK  0 active torsions:
REMARK  status: ('A' for Active; 'I' for Inactive)
ROOT
HETATM    1  C1  UNL     1     -34.511   7.164   5.782  1.00 20.00     0.067 C 
HETATM    2  C2  UNL     1     -35.069   6.243   3.567  1.00 20.00     0.059 C 
HETATM    3  C3  UNL     1     -34.462   7.411   4.330  1.00 20.00     0.129 C 
HETATM    4  C4  UNL     1     -33.880   5.320   3.281  1.00 20.00     0.056 C 
HETATM    5  C5  UNL     1     -33.040   7.477   3.748  1.00 20.00     0.071 C 
HETATM    6  C6  UNL     1     -33.751   4.196   4.312  1.00 20.00     0.045 C 
HETATM    7  C7  UNL     1     -33.955   4.721   1.878  1.00 20.00     0.045 C 
HETATM    8  C8  UNL     1     -33.011   8.331   2.470  1.00 20.00     0.047 C 
HETATM    9  C9  UNL     1     -31.963   7.994   4.706  1.00 20.00     0.047 C 
HETATM   10  N10 UNL     1     -34.549   6.969   6.925  1.00 20.00    -0.197 NA
HETATM   11  O11 UNL     1     -32.691   6.130   3.368  1.00 20.00    -0.369 OA
ENDROOT
TORSDOF 0
