REMARK  2 active torsions:
REMARK  status: ('A' for Active; 'I' for Inactive)
REMARK    1  A    between atoms: C1_1  and  C5_5 
REMARK    2  A    between atoms: C1_1  and  C8_8 
ROOT
HETATM    1  C2  UNL     1     -33.952   5.202   6.955  1.00 20.00     0.084 C 
HETATM    2  C3  UNL     1     -33.689   4.290   5.768  1.00 20.00     0.085 C 
HETATM    3  C4  UNL     1     -34.374   7.327   5.226  1.00 20.00     0.096 C 
HETATM    4  C5  UNL     1     -34.237   6.403   4.020  1.00 20.00     0.126 C 
HETATM    5  S10 UNL     1     -33.359   6.895   6.675  1.00 20.00    -0.167 SA
HETATM    6  S11 UNL     1     -34.733   4.681   4.332  1.00 20.00    -0.155 SA
ENDROOT
BRANCH   4   7
HETATM    7  C1  UNL     1     -32.868   6.410   3.414  1.00 20.00     0.144 C 
HETATM    8  O9  UNL     1     -32.208   5.373   3.339  1.00 20.00    -0.296 OA
BRANCH   7   9
HETATM    9  C8  UNL     1     -32.332   7.756   2.935  1.00 20.00     0.048 C 
HETATM   10  C6  UNL     1     -31.059   8.109   3.694  1.00 20.00     0.017 C 
HETATM   11  C7  UNL     1     -32.080   7.740   1.430  1.00 20.00     0.017 C 
ENDBRANCH   7   9
ENDBRANCH   4   7
TORSDOF 2
