REMARK  5 active torsions:
REMARK  status: ('A' for Active; 'I' for Inactive)
REMARK    1  A    between atoms: C4_4  and  C6_6 
REMARK    2  A    between atoms: C4_4  and  O8_8 
REMARK    3  A    between atoms: C5_5  and  C6_6 
REMARK    4  A    between atoms: C5_5  and  S9_9 
REMARK    5  A    between atoms: C7_7  and  O8_8 
ROOT
HETATM    1  C4  UNL     1     -32.905   6.675   4.496  1.00 20.00     0.173 C 
ENDROOT
BRANCH   1   2
HETATM    2  C6  UNL     1     -32.356   6.345   3.102  1.00 20.00     0.014 C 
HETATM    3  C1  UNL     1     -32.575   4.868   2.752  1.00 20.00     0.012 C 
BRANCH   2   4
HETATM    4  C5  UNL     1     -32.903   7.298   2.024  1.00 20.00     0.077 C 
BRANCH   4   5
HETATM    5  S9  UNL     1     -32.193   8.974   2.026  1.00 20.00    -0.182 SA
HETATM    6  H25 UNL     1     -32.913   9.428   0.991  1.00 20.00     0.101 HD
ENDBRANCH   4   5
ENDBRANCH   2   4
ENDBRANCH   1   2
BRANCH   1   7
HETATM    7  O8  UNL     1     -34.300   6.401   4.540  1.00 20.00    -0.386 OA
BRANCH   7   8
HETATM    8  C7  UNL     1     -34.758   6.248   5.876  1.00 20.00     0.113 C 
HETATM    9  C2  UNL     1     -34.418   4.848   6.365  1.00 20.00     0.039 C 
HETATM   10  C3  UNL     1     -34.127   7.322   6.748  1.00 20.00     0.039 C 
ENDBRANCH   7   8
ENDBRANCH   1   7
TORSDOF 5
