REMARK  1 active torsions:
REMARK  status: ('A' for Active; 'I' for Inactive)
REMARK    1  A    between atoms: C5_5  and  C12_12 
ROOT
HETATM    1  C1  UNL     1     -32.632   5.864   1.663  1.00 20.00     0.008 A 
HETATM    2  C2  UNL     1     -33.235   4.839   2.401  1.00 20.00     0.009 A 
HETATM    3  C3  UNL     1     -32.859   7.409   3.528  1.00 20.00     0.023 A 
HETATM    4  C4  UNL     1     -33.451   6.377   4.231  1.00 20.00     0.017 A 
HETATM    5  C5  UNL     1     -32.445   7.139   2.223  1.00 20.00    -0.053 A 
HETATM    6  C6  UNL     1     -33.645   5.109   3.697  1.00 20.00    -0.044 A 
HETATM    7  C7  UNL     1     -33.968   6.381   5.590  1.00 20.00     0.160 A 
HETATM    8  C8  UNL     1     -34.305   4.170   4.654  1.00 20.00     0.047 A 
HETATM    9  C9  UNL     1     -34.524   5.016   5.921  1.00 20.00     0.088 A 
HETATM   10  O13 UNL     1     -33.945   7.348   6.330  1.00 20.00    -0.292 OA
ENDROOT
BRANCH   5  11
HETATM   11  C12 UNL     1     -31.801   8.213   1.414  1.00 20.00     0.018 A 
HETATM   12  C10 UNL     1     -32.526   9.519   1.222  1.00 20.00     0.010 A 
HETATM   13  C11 UNL     1     -32.384   8.571   0.072  1.00 20.00     0.010 A 
ENDBRANCH   5  11
TORSDOF 1
