REMARK  2 active torsions:
REMARK  status: ('A' for Active; 'I' for Inactive)
REMARK    1  A    between atoms: C5_5  and  C10_10 
REMARK    2  A    between atoms: C6_6  and  C11_11 
ROOT
HETATM    1  C1  UNL     1     -32.976   7.680   3.847  1.00 20.00     0.008 A 
HETATM    2  C2  UNL     1     -32.670   5.943   2.195  1.00 20.00     0.008 A 
HETATM    3  C3  UNL     1     -33.604   6.765   4.692  1.00 20.00     0.010 A 
HETATM    4  C4  UNL     1     -33.298   5.028   3.040  1.00 20.00     0.010 A 
HETATM    5  C5  UNL     1     -32.509   7.269   2.599  1.00 20.00    -0.054 A 
HETATM    6  C6  UNL     1     -33.765   5.439   4.289  1.00 20.00    -0.027 A 
ENDROOT
BRANCH   5   7
HETATM    7  C10 UNL     1     -31.839   8.246   1.696  1.00 20.00     0.018 A 
HETATM    8  C7  UNL     1     -32.561   9.515   1.324  1.00 20.00     0.010 A 
HETATM    9  C8  UNL     1     -32.370   8.441   0.299  1.00 20.00     0.010 A 
ENDBRANCH   5   7
BRANCH   6  10
HETATM   10  C11 UNL     1     -34.436   4.462   5.192  1.00 20.00     0.178 A 
HETATM   11  C9  UNL     1     -34.325   4.632   6.683  1.00 20.00     0.205 A 
HETATM   12  O12 UNL     1     -35.526   4.960   5.981  1.00 20.00    -0.376 OA
ENDBRANCH   6  10
TORSDOF 2
