REMARK  1 active torsions:
REMARK  status: ('A' for Active; 'I' for Inactive)
REMARK    1  A    between atoms: C4_4  and  C11_11 
ROOT
HETATM    1  C1  UNL     1     -31.736   8.447   3.701  1.00 20.00     0.008 A 
HETATM    2  C2  UNL     1     -32.235   8.107   4.960  1.00 20.00     0.008 A 
HETATM    3  C3  UNL     1     -33.271   6.897   2.623  1.00 20.00     0.016 A 
HETATM    4  C4  UNL     1     -32.251   7.847   2.541  1.00 20.00    -0.053 A 
HETATM    5  C5  UNL     1     -33.254   7.173   5.032  1.00 20.00    -0.050 A 
HETATM    6  C6  UNL     1     -33.765   6.569   3.875  1.00 20.00    -0.033 A 
HETATM    7  C7  UNL     1     -33.921   6.631   6.257  1.00 20.00     0.041 C 
HETATM    8  C8  UNL     1     -35.189   6.008   5.649  1.00 20.00     0.030 C 
HETATM    9  C12 UNL     1     -34.827   5.570   4.218  1.00 20.00     0.116 C 
HETATM   10 CL13 UNL     1     -34.155   3.926   4.195  1.00 20.00    -0.120 Cl
ENDROOT
BRANCH   4  11
HETATM   11  C11 UNL     1     -31.700   8.226   1.208  1.00 20.00     0.018 A 
HETATM   12  C9  UNL     1     -32.625   8.269   0.020  1.00 20.00     0.010 A 
HETATM   13  C10 UNL     1     -31.605   7.179   0.130  1.00 20.00     0.010 A 
ENDBRANCH   4  11
TORSDOF 1
