REMARK  6 active torsions:
REMARK  status: ('A' for Active; 'I' for Inactive)
REMARK    1  A    between atoms: C2_2  and  C3_3 
REMARK    2  A    between atoms: C2_2  and  O6_6 
REMARK    3  A    between atoms: C3_3  and  S8_8 
REMARK    4  A    between atoms: C4_4  and  C5_5 
REMARK    5  A    between atoms: C4_4  and  S7_7 
REMARK    6  A    between atoms: C5_5  and  S8_8 
ROOT
HETATM    1  S8  UNL     1     -33.645   4.773   3.833  1.00 20.00    -0.166 SA
ENDROOT
BRANCH   1   2
HETATM    2  C3  UNL     1     -35.003   5.078   5.003  1.00 20.00     0.100 C 
BRANCH   2   3
HETATM    3  C2  UNL     1     -34.499   5.131   6.437  1.00 20.00     0.177 C 
BRANCH   3   4
HETATM    4  O6  UNL     1     -33.543   6.174   6.579  1.00 20.00    -0.395 OA
HETATM    5  C1  UNL     1     -34.167   7.449   6.634  1.00 20.00     0.201 C 
ENDBRANCH   3   4
ENDBRANCH   2   3
ENDBRANCH   1   2
BRANCH   1   6
HETATM    6  C5  UNL     1     -32.994   6.456   3.747  1.00 20.00     0.084 C 
BRANCH   6   7
HETATM    7  C4  UNL     1     -32.196   6.645   2.465  1.00 20.00     0.081 C 
BRANCH   7   8
HETATM    8  S7  UNL     1     -31.534   8.336   2.383  1.00 20.00    -0.181 SA
HETATM    9  H20 UNL     1     -30.917   8.188   1.203  1.00 20.00     0.101 HD
ENDBRANCH   7   8
ENDBRANCH   6   7
ENDBRANCH   1   6
TORSDOF 6
