REMARK  5 active torsions:
REMARK  status: ('A' for Active; 'I' for Inactive)
REMARK    1  A    between atoms: C1_1  and  C5_5 
REMARK    2  A    between atoms: C2_2  and  C6_6 
REMARK    3  A    between atoms: C5_5  and  O8_8 
REMARK    4  A    between atoms: C6_6  and  S9_9 
REMARK    5  A    between atoms: C7_7  and  O8_8 
ROOT
HETATM    1  C1  UNL     1     -32.483   7.809   3.605  1.00 20.00    -0.004 C 
HETATM    2  C2  UNL     1     -33.039   7.650   2.394  1.00 20.00    -0.019 C 
ENDROOT
BRANCH   1   3
HETATM    3  C5  UNL     1     -33.156   7.429   4.883  1.00 20.00     0.195 C 
BRANCH   3   4
HETATM    4  O8  UNL     1     -34.435   6.889   4.582  1.00 20.00    -0.383 OA
BRANCH   4   5
HETATM    5  C7  UNL     1     -34.936   6.104   5.655  1.00 20.00     0.113 C 
HETATM    6  C3  UNL     1     -34.292   4.727   5.611  1.00 20.00     0.039 C 
HETATM    7  C4  UNL     1     -34.659   6.817   6.970  1.00 20.00     0.039 C 
ENDBRANCH   4   5
ENDBRANCH   3   4
ENDBRANCH   1   3
BRANCH   2   8
HETATM    8  C6  UNL     1     -32.359   8.021   1.114  1.00 20.00     0.097 C 
BRANCH   8   9
HETATM    9  S9  UNL     1     -33.347   9.248   0.217  1.00 20.00    -0.178 SA
HETATM   10  H23 UNL     1     -32.515   9.368  -0.827  1.00 20.00     0.101 HD
ENDBRANCH   8   9
ENDBRANCH   2   8
TORSDOF 5
