REMARK  5 active torsions:
REMARK  status: ('A' for Active; 'I' for Inactive)
REMARK    1  A    between atoms: C5_5  and  C8_8 
REMARK    2  A    between atoms: C5_5  and  N9_9 
REMARK    3  A    between atoms: C6_6  and  C8_8 
REMARK    4  A    between atoms: C6_6  and  S10_10 
REMARK    5  A    between atoms: C7_7  and  C8_8 
ROOT
HETATM    1  C8  UNL     1     -33.382   6.808   4.493  1.00 20.00     0.024 C 
ENDROOT
BRANCH   1   2
HETATM    2  C5  UNL     1     -33.230   8.154   3.752  1.00 20.00     0.239 C 
BRANCH   2   3
HETATM    3  N9  UNL     1     -32.719   7.968   2.373  1.00 20.00    -0.078 N 
HETATM    4  C3  UNL     1     -32.568   9.271   1.626  1.00 20.00     0.269 C 
HETATM    5  C4  UNL     1     -31.441   7.165   2.330  1.00 20.00     0.269 C 
HETATM    6  H29 UNL     1     -33.419   7.417   1.846  1.00 20.00     0.278 HD
ENDBRANCH   2   3
ENDBRANCH   1   2
BRANCH   1   7
HETATM    7  C6  UNL     1     -33.917   6.963   5.940  1.00 20.00     0.077 C 
BRANCH   7   8
HETATM    8  S10 UNL     1     -33.544   5.568   7.051  1.00 20.00    -0.182 SA
HETATM    9  H30 UNL     1     -34.150   6.085   8.127  1.00 20.00     0.101 HD
ENDBRANCH   7   8
ENDBRANCH   1   7
BRANCH   1  10
HETATM   10  C7  UNL     1     -34.258   5.772   3.707  1.00 20.00    -0.016 C 
HETATM   11  C1  UNL     1     -35.762   5.972   3.942  1.00 20.00     0.010 C 
HETATM   12  C2  UNL     1     -33.908   4.320   4.068  1.00 20.00     0.010 C 
ENDBRANCH   1  10
TORSDOF 5
