REMARK  6 active torsions:
REMARK  status: ('A' for Active; 'I' for Inactive)
REMARK    1  A    between atoms: C3_3  and  C5_5 
REMARK    2  A    between atoms: C3_3  and  C7_7 
REMARK    3  A    between atoms: C4_4  and  C6_6 
REMARK    4  A    between atoms: C4_4  and  C7_7 
REMARK    5  A    between atoms: C5_5  and  S8_8 
REMARK    6  A    between atoms: C6_6  and  S9_9 
ROOT
HETATM    1  C1  UNL     1     -33.743   3.987   3.909  1.00 20.00     0.010 C 
HETATM    2  C7  UNL     1     -33.480   5.496   3.919  1.00 20.00    -0.017 C 
ENDROOT
BRANCH   2   3
HETATM    3  C3  UNL     1     -34.751   6.288   4.301  1.00 20.00     0.014 C 
BRANCH   3   4
HETATM    4  C5  UNL     1     -35.285   6.008   5.706  1.00 20.00     0.071 C 
BRANCH   4   5
HETATM    5  S8  UNL     1     -34.030   6.420   6.956  1.00 20.00    -0.182 SA
HETATM    6  H25 UNL     1     -34.774   6.078   8.017  1.00 20.00     0.101 HD
ENDBRANCH   4   5
ENDBRANCH   3   4
ENDBRANCH   2   3
BRANCH   2   7
HETATM    7  C4  UNL     1     -32.880   5.989   2.585  1.00 20.00     0.014 C 
BRANCH   7   8
HETATM    8  C6  UNL     1     -32.217   7.361   2.706  1.00 20.00     0.073 C 
BRANCH   8   9
HETATM    9  S9  UNL     1     -31.521   7.878   1.109  1.00 20.00    -0.173 SA
HETATM   10  C2  UNL     1     -33.054   8.416   0.318  1.00 20.00     0.089 C 
ENDBRANCH   8   9
ENDBRANCH   7   8
ENDBRANCH   2   7
TORSDOF 6
