REMARK  4 active torsions:
REMARK  status: ('A' for Active; 'I' for Inactive)
REMARK    1  A    between atoms: C1_1  and  C9_9 
REMARK    2  A    between atoms: C2_2  and  C10_10 
REMARK    3  A    between atoms: C9_9  and  N11_11 
REMARK    4  A    between atoms: C10_10  and  S12_12 
ROOT
HETATM    1  C3  UNL     1     -34.984   5.971   6.672  1.00 20.00     0.002 C 
HETATM    2  C4  UNL     1     -34.471   4.757   5.903  1.00 20.00     0.002 C 
HETATM    3  C5  UNL     1     -34.068   7.204   6.642  1.00 20.00     0.030 C 
HETATM    4  C6  UNL     1     -34.451   4.929   4.381  1.00 20.00     0.030 C 
HETATM    5  C7  UNL     1     -32.870   7.146   5.688  1.00 20.00     0.272 C 
HETATM    6  C8  UNL     1     -34.359   6.367   3.861  1.00 20.00     0.272 C 
HETATM    7  N11 UNL     1     -33.190   7.150   4.258  1.00 20.00     0.091 N 
ENDROOT
BRANCH   7   8
HETATM    8  C9  UNL     1     -32.008   6.813   3.466  1.00 20.00     0.299 C 
BRANCH   8   9
HETATM    9  C1  UNL     1     -32.151   7.265   2.044  1.00 20.00    -0.000 C 
HETATM   10  C2  UNL     1     -31.334   8.155   1.459  1.00 20.00    -0.019 C 
BRANCH  10  11
HETATM   11  C10 UNL     1     -31.476   8.601   0.038  1.00 20.00     0.097 C 
BRANCH  11  12
HETATM   12  S12 UNL     1     -33.085   9.400  -0.207  1.00 20.00    -0.178 SA
HETATM   13  H31 UNL     1     -32.914   9.672  -1.508  1.00 20.00     0.101 HD
ENDBRANCH  11  12
ENDBRANCH  10  11
ENDBRANCH   8   9
ENDBRANCH   7   8
TORSDOF 4
