REMARK  4 active torsions:
REMARK  status: ('A' for Active; 'I' for Inactive)
REMARK    1  A    between atoms: C4_4  and  O8_8 
REMARK    2  A    between atoms: C5_5  and  C6_6 
REMARK    3  A    between atoms: C5_5  and  O8_8 
REMARK    4  A    between atoms: C6_6  and  S9_9 
ROOT
HETATM    1  C1  UNL     1     -34.240   6.059   3.973  1.00 20.00     0.060 C 
HETATM    2  C2  UNL     1     -35.117   6.149   5.202  1.00 20.00     0.170 C 
HETATM    3  C3  UNL     1     -33.160   7.342   5.613  1.00 20.00     0.199 C 
HETATM    4  C4  UNL     1     -33.384   7.293   4.115  1.00 20.00     0.147 C 
HETATM    5  O7  UNL     1     -34.331   6.783   6.223  1.00 20.00    -0.389 OA
ENDROOT
BRANCH   4   6
HETATM    6  O8  UNL     1     -32.175   7.177   3.397  1.00 20.00    -0.383 OA
BRANCH   6   7
HETATM    7  C5  UNL     1     -32.366   7.445   2.014  1.00 20.00     0.178 C 
BRANCH   7   8
HETATM    8  C6  UNL     1     -32.497   8.942   1.786  1.00 20.00     0.097 C 
BRANCH   8   9
HETATM    9  S9  UNL     1     -32.736   9.326   0.024  1.00 20.00    -0.180 SA
HETATM   10  H21 UNL     1     -32.810  10.655   0.181  1.00 20.00     0.101 HD
ENDBRANCH   8   9
ENDBRANCH   7   8
ENDBRANCH   6   7
ENDBRANCH   4   6
TORSDOF 4
