REMARK  5 active torsions:
REMARK  status: ('A' for Active; 'I' for Inactive)
REMARK    1  A    between atoms: C3_3  and  C6_6 
REMARK    2  A    between atoms: C4_4  and  C6_6 
REMARK    3  A    between atoms: C4_4  and  O7_7 
REMARK    4  A    between atoms: C5_5  and  C6_6 
REMARK    5  A    between atoms: C5_5  and  S8_8 
ROOT
HETATM    1  C6  UNL     1     -33.831   6.442   3.863  1.00 20.00     0.018 C 
ENDROOT
BRANCH   1   2
HETATM    2  C3  UNL     1     -34.682   5.192   4.164  1.00 20.00     0.003 C 
HETATM    3  C1  UNL     1     -33.884   4.026   4.730  1.00 20.00     0.005 C 
ENDBRANCH   1   2
BRANCH   1   4
HETATM    4  C4  UNL     1     -32.825   6.120   2.744  1.00 20.00     0.172 C 
BRANCH   4   5
HETATM    5  O7  UNL     1     -32.048   7.269   2.434  1.00 20.00    -0.396 OA
HETATM    6  C2  UNL     1     -32.778   8.195   1.642  1.00 20.00     0.201 C 
ENDBRANCH   4   5
ENDBRANCH   1   4
BRANCH   1   7
HETATM    7  C5  UNL     1     -33.170   7.083   5.102  1.00 20.00     0.077 C 
BRANCH   7   8
HETATM    8  S8  UNL     1     -34.318   7.612   6.412  1.00 20.00    -0.182 SA
HETATM    9  H22 UNL     1     -33.375   8.080   7.240  1.00 20.00     0.101 HD
ENDBRANCH   7   8
ENDBRANCH   1   7
TORSDOF 5
