REMARK  2 active torsions:
REMARK  status: ('A' for Active; 'I' for Inactive)
REMARK    1  A    between atoms: C4_4  and  C7_7 
REMARK    2  A    between atoms: C7_7  and  C8_8 
ROOT
HETATM    1  C1  UNL     1     -34.445   5.535   4.650  1.00 20.00     0.033 C 
HETATM    2  C2  UNL     1     -34.764   4.954   6.012  1.00 20.00     0.168 C 
HETATM    3  C3  UNL     1     -33.414   6.828   6.314  1.00 20.00     0.172 C 
HETATM    4  C4  UNL     1     -33.151   6.269   4.926  1.00 20.00     0.016 C 
HETATM    5  O9  UNL     1     -34.248   5.872   6.986  1.00 20.00    -0.391 OA
ENDROOT
BRANCH   4   6
HETATM    6  C7  UNL     1     -32.803   7.326   3.896  1.00 20.00     0.002 C 
HETATM    7  C5  UNL     1     -31.898   8.366   4.516  1.00 20.00     0.011 C 
BRANCH   6   8
HETATM    8  C8  UNL     1     -32.228   6.676   2.622  1.00 20.00     0.058 C 
HETATM    9  C6  UNL     1     -32.953   5.437   2.118  1.00 20.00     0.022 C 
HETATM   10 BR10 UNL     1     -32.163   7.994   1.163  1.00 20.00    -0.091 Br
ENDBRANCH   6   8
ENDBRANCH   4   6
TORSDOF 2
