REMARK  3 active torsions:
REMARK  status: ('A' for Active; 'I' for Inactive)
REMARK    1  A    between atoms: C4_4  and  C10_10 
REMARK    2  A    between atoms: C8_8  and  C10_10 
REMARK    3  A    between atoms: C9_9  and  C10_10 
ROOT
HETATM    1  C1  UNL     1     -32.054   7.305   1.947  1.00 20.00     0.006 C 
HETATM    2  C2  UNL     1     -31.513   8.554   1.266  1.00 20.00     0.020 C 
HETATM    3  C3  UNL     1     -32.826   9.305   3.136  1.00 20.00     0.025 C 
HETATM    4  C4  UNL     1     -32.534   7.804   3.315  1.00 20.00    -0.009 C 
HETATM    5  C5  UNL     1     -32.542   9.600   1.664  1.00 20.00     0.082 C 
HETATM    6 CL11 UNL     1     -31.959  11.250   1.402  1.00 20.00    -0.125 Cl
ENDROOT
BRANCH   4   7
HETATM    7  C10 UNL     1     -33.732   7.022   3.831  1.00 20.00    -0.011 C 
BRANCH   7   8
HETATM    8  C8  UNL     1     -34.216   7.557   5.195  1.00 20.00     0.000 C 
HETATM    9  C6  UNL     1     -33.172   7.460   6.299  1.00 20.00     0.005 C 
ENDBRANCH   7   8
BRANCH   7  10
HETATM   10  C9  UNL     1     -33.413   5.518   3.965  1.00 20.00     0.000 C 
HETATM   11  C7  UNL     1     -34.587   4.680   4.451  1.00 20.00     0.005 C 
ENDBRANCH   7  10
ENDBRANCH   4   7
TORSDOF 3
