REMARK  5 active torsions:
REMARK  status: ('A' for Active; 'I' for Inactive)
REMARK    1  A    between atoms: C1_1  and  C7_7 
REMARK    2  A    between atoms: C1_1  and  C11_11 
REMARK    3  A    between atoms: C7_7  and  C10_10 
REMARK    4  A    between atoms: C8_8  and  C10_10 
REMARK    5  A    between atoms: C9_9  and  C10_10 
ROOT
HETATM    1  C1  UNL     1     -34.423   6.352   4.465  1.00 20.00     0.134 C 
HETATM    2  O12 UNL     1     -35.400   6.103   3.756  1.00 20.00    -0.297 OA
ENDROOT
BRANCH   1   3
HETATM    3  C7  UNL     1     -33.307   7.270   3.968  1.00 20.00     0.083 C 
BRANCH   3   4
HETATM    4  C10 UNL     1     -33.140   7.264   2.433  1.00 20.00    -0.008 C 
BRANCH   4   5
HETATM    5  C8  UNL     1     -32.428   5.975   1.968  1.00 20.00     0.000 C 
HETATM    6  C2  UNL     1     -33.111   4.674   2.368  1.00 20.00     0.005 C 
ENDBRANCH   4   5
BRANCH   4   7
HETATM    7  C9  UNL     1     -32.444   8.561   1.965  1.00 20.00     0.000 C 
HETATM    8  C3  UNL     1     -32.285   8.660   0.454  1.00 20.00     0.005 C 
ENDBRANCH   4   7
ENDBRANCH   3   4
ENDBRANCH   1   3
BRANCH   1   9
HETATM    9  C11 UNL     1     -34.280   5.741   5.875  1.00 20.00     0.009 C 
HETATM   10  C4  UNL     1     -33.480   6.706   6.758  1.00 20.00     0.022 C 
HETATM   11  C5  UNL     1     -35.676   5.544   6.493  1.00 20.00     0.022 C 
HETATM   12  C6  UNL     1     -33.583   4.376   5.806  1.00 20.00     0.022 C 
ENDBRANCH   1   9
TORSDOF 5
