REMARK  3 active torsions:
REMARK  status: ('A' for Active; 'I' for Inactive)
REMARK    1  A    between atoms: C4_4  and  C7_7 
REMARK    2  A    between atoms: C4_4  and  C9_9 
REMARK    3  A    between atoms: C8_8  and  C9_9 
ROOT
HETATM    1  C1  UNL     1     -34.536   6.963   6.983  1.00 20.00     0.002 C 
HETATM    2  C2  UNL     1     -33.301   7.444   6.197  1.00 20.00     0.011 C 
HETATM    3  C3  UNL     1     -35.140   6.491   5.646  1.00 20.00     0.011 C 
HETATM    4  C4  UNL     1     -33.697   6.456   5.061  1.00 20.00    -0.025 C 
ENDROOT
BRANCH   4   5
HETATM    5  C7  UNL     1     -33.017   5.090   5.152  1.00 20.00     0.124 C 
HETATM    6 CL10 UNL     1     -33.930   3.888   4.222  1.00 20.00    -0.130 Cl
ENDBRANCH   4   5
BRANCH   4   7
HETATM    7  C9  UNL     1     -33.582   7.045   3.658  1.00 20.00    -0.010 C 
HETATM    8  C6  UNL     1     -34.657   6.438   2.752  1.00 20.00     0.011 C 
BRANCH   7   9
HETATM    9  C8  UNL     1     -32.193   6.818   3.038  1.00 20.00     0.000 C 
HETATM   10  C5  UNL     1     -32.048   7.400   1.639  1.00 20.00     0.005 C 
ENDBRANCH   7   9
ENDBRANCH   4   7
TORSDOF 3
