REMARK  3 active torsions:
REMARK  status: ('A' for Active; 'I' for Inactive)
REMARK    1  A    between atoms: C5_5  and  C6_6 
REMARK    2  A    between atoms: C6_6  and  C7_7 
REMARK    3  A    between atoms: C7_7  and  C8_8 
ROOT
HETATM    1  C1  UNL     1     -31.910   8.602   1.577  1.00 20.00     0.012 C 
HETATM    2  C2  UNL     1     -32.151   7.818   2.453  1.00 20.00    -0.117 C 
HETATM    3  C5  UNL     1     -32.445   6.853   3.524  1.00 20.00     0.093 C 
ENDROOT
BRANCH   3   4
HETATM    4  C6  UNL     1     -33.453   7.432   4.522  1.00 20.00     0.018 C 
BRANCH   4   5
HETATM    5  C7  UNL     1     -33.741   6.496   5.721  1.00 20.00     0.000 C 
HETATM    6  C3  UNL     1     -34.272   7.278   6.930  1.00 20.00     0.011 C 
BRANCH   5   7
HETATM    7  C8  UNL     1     -34.667   5.331   5.282  1.00 20.00     0.082 C 
HETATM    8  C4  UNL     1     -35.864   5.788   4.452  1.00 20.00     0.027 C 
HETATM    9 CL9  UNL     1     -33.781   4.065   4.375  1.00 20.00    -0.125 Cl
ENDBRANCH   5   7
ENDBRANCH   4   5
ENDBRANCH   3   4
TORSDOF 3
