REMARK  4 active torsions:
REMARK  status: ('A' for Active; 'I' for Inactive)
REMARK    1  A    between atoms: C5_5  and  C8_8 
REMARK    2  A    between atoms: C6_6  and  C8_8 
REMARK    3  A    between atoms: C7_7  and  C8_8 
REMARK    4  A    between atoms: C7_7  and  S10_10 
ROOT
HETATM    1  C1  UNL     1     -32.260   6.872   2.264  1.00 20.00     0.074 C 
HETATM    2  C7  UNL     1     -32.294   7.142   3.716  1.00 20.00     0.157 C 
HETATM    3  N9  UNL     1     -32.233   6.652   1.125  1.00 20.00    -0.196 NA
ENDROOT
BRANCH   2   4
HETATM    4  C8  UNL     1     -33.758   7.226   4.245  1.00 20.00     0.012 C 
BRANCH   4   5
HETATM    5  C5  UNL     1     -33.832   7.585   5.754  1.00 20.00     0.002 C 
HETATM    6  C2  UNL     1     -33.197   6.537   6.662  1.00 20.00     0.005 C 
ENDBRANCH   4   5
BRANCH   4   7
HETATM    7  C6  UNL     1     -34.589   5.950   3.954  1.00 20.00     0.002 C 
HETATM    8  C3  UNL     1     -36.045   6.033   4.394  1.00 20.00     0.005 C 
ENDBRANCH   4   7
ENDBRANCH   2   4
BRANCH   2   9
HETATM    9  S10 UNL     1     -31.269   8.607   4.114  1.00 20.00    -0.154 SA
HETATM   10  C4  UNL     1     -29.658   7.792   4.095  1.00 20.00     0.091 C 
ENDBRANCH   2   9
TORSDOF 4
