REMARK  6 active torsions:
REMARK  status: ('A' for Active; 'I' for Inactive)
REMARK    1  A    between atoms: C5_5  and  C7_7 
REMARK    2  A    between atoms: C6_6  and  C11_11 
REMARK    3  A    between atoms: C7_7  and  C8_8 
REMARK    4  A    between atoms: C8_8  and  C11_11 
REMARK    5  A    between atoms: C9_9  and  C11_11 
REMARK    6  A    between atoms: C10_10  and  C11_11 
ROOT
HETATM    1  C11 UNL     1     -33.358   6.900   3.656  1.00 20.00    -0.025 C 
ENDROOT
BRANCH   1   2
HETATM    2  C6  UNL     1     -32.079   7.459   4.386  1.00 20.00     0.006 C 
HETATM    3  C2  UNL     1     -32.098   8.940   4.752  1.00 20.00     0.006 C 
ENDBRANCH   1   2
BRANCH   1   4
HETATM    4  C8  UNL     1     -33.527   7.703   2.319  1.00 20.00     0.011 C 
BRANCH   4   5
HETATM    5  C7  UNL     1     -32.371   7.592   1.309  1.00 20.00     0.000 C 
BRANCH   5   6
HETATM    6  C5  UNL     1     -32.685   8.375   0.031  1.00 20.00    -0.005 C 
HETATM    7  C1  UNL     1     -32.877   9.855   0.317  1.00 20.00     0.005 C 
ENDBRANCH   5   6
ENDBRANCH   4   5
ENDBRANCH   1   4
BRANCH   1   8
HETATM    8  C9  UNL     1     -34.562   7.126   4.631  1.00 20.00     0.124 C 
HETATM    9 CL12 UNL     1     -34.233   6.865   6.365  1.00 20.00    -0.130 Cl
ENDBRANCH   1   8
BRANCH   1  10
HETATM   10  C10 UNL     1     -33.172   5.349   3.353  1.00 20.00    -0.013 C 
HETATM   11  C3  UNL     1     -32.900   4.499   4.607  1.00 20.00     0.010 C 
HETATM   12  C4  UNL     1     -34.316   4.679   2.578  1.00 20.00     0.010 C 
ENDBRANCH   1  10
TORSDOF 6
