REMARK  4 active torsions:
REMARK  status: ('A' for Active; 'I' for Inactive)
REMARK    1  A    between atoms: C2_2  and  C6_6 
REMARK    2  A    between atoms: C2_2  and  C7_7 
REMARK    3  A    between atoms: C7_7  and  C8_8 
REMARK    4  A    between atoms: C8_8  and  C9_9 
ROOT
HETATM    1  C7  UNL     1     -32.116   7.291   3.179  1.00 20.00     0.039 C 
ENDROOT
BRANCH   1   2
HETATM    2  C2  UNL     1     -32.273   7.902   1.799  1.00 20.00    -0.089 C 
HETATM    3  C1  UNL     1     -31.664   7.356   0.733  1.00 20.00     0.014 C 
BRANCH   2   4
HETATM    4  C6  UNL     1     -33.135   9.135   1.648  1.00 20.00     0.029 C 
HETATM    5  C3  UNL     1     -33.212   9.640   0.214  1.00 20.00     0.010 C 
ENDBRANCH   2   4
ENDBRANCH   1   2
BRANCH   1   6
HETATM    6  C8  UNL     1     -33.129   6.168   3.514  1.00 20.00     0.003 C 
HETATM    7  C4  UNL     1     -32.750   4.850   2.821  1.00 20.00     0.011 C 
BRANCH   6   8
HETATM    8  C9  UNL     1     -33.325   5.954   5.039  1.00 20.00     0.082 C 
HETATM    9  C5  UNL     1     -33.687   7.234   5.786  1.00 20.00     0.027 C 
HETATM   10 CL10 UNL     1     -34.551   4.701   5.407  1.00 20.00    -0.125 Cl
ENDBRANCH   6   8
ENDBRANCH   1   6
TORSDOF 4
