REMARK  2 active torsions:
REMARK  status: ('A' for Active; 'I' for Inactive)
REMARK    1  A    between atoms: C3_3  and  C8_8 
REMARK    2  A    between atoms: C8_8  and  C9_9 
ROOT
HETATM    1  C1  UNL     1     -32.469   8.452   4.548  1.00 20.00     0.302 C 
HETATM    2  C2  UNL     1     -33.041   6.308   5.584  1.00 20.00     0.244 C 
HETATM    3  C3  UNL     1     -32.005   7.522   3.429  1.00 20.00     0.150 C 
HETATM    4  C4  UNL     1     -33.800   6.135   4.254  1.00 20.00     0.150 C 
HETATM    5  C5  UNL     1     -33.828   5.832   6.802  1.00 20.00     0.045 C 
HETATM    6  C6  UNL     1     -34.236   4.699   3.985  1.00 20.00     0.042 C 
HETATM    7  N10 UNL     1     -32.698   7.725   5.797  1.00 20.00     0.092 N 
HETATM    8  O11 UNL     1     -32.991   6.528   3.134  1.00 20.00    -0.377 OA
HETATM    9  H30 UNL     1     -31.853   7.788   6.385  1.00 20.00     0.316 HD
ENDROOT
BRANCH   3  10
HETATM   10  C8  UNL     1     -31.730   8.292   2.144  1.00 20.00     0.033 C 
BRANCH  10  11
HETATM   11  C9  UNL     1     -32.991   8.980   1.633  1.00 20.00    -0.002 C 
HETATM   12  C7  UNL     1     -32.711   9.770   0.365  1.00 20.00     0.005 C 
ENDBRANCH  10  11
ENDBRANCH   3  10
TORSDOF 2
