REMARK  4 active torsions:
REMARK  status: ('A' for Active; 'I' for Inactive)
REMARK    1  A    between atoms: C1_1  and  C9_9 
REMARK    2  A    between atoms: C1_1  and  C10_10 
REMARK    3  A    between atoms: C7_7  and  C9_9 
REMARK    4  A    between atoms: C8_8  and  C9_9 
ROOT
HETATM    1  C1  UNL     1     -34.152   5.903   4.724  1.00 20.00     0.138 C 
HETATM    2  O11 UNL     1     -35.260   5.551   4.308  1.00 20.00    -0.297 OA
ENDROOT
BRANCH   1   3
HETATM    3  C9  UNL     1     -33.025   6.213   3.729  1.00 20.00     0.055 C 
BRANCH   3   4
HETATM    4  C7  UNL     1     -32.737   4.933   2.922  1.00 20.00     0.007 C 
HETATM    5  C2  UNL     1     -33.932   4.453   2.110  1.00 20.00     0.006 C 
ENDBRANCH   3   4
BRANCH   3   6
HETATM    6  C8  UNL     1     -33.417   7.386   2.811  1.00 20.00     0.007 C 
HETATM    7  C3  UNL     1     -32.333   7.749   1.806  1.00 20.00     0.006 C 
ENDBRANCH   3   6
ENDBRANCH   1   3
BRANCH   1   8
HETATM    8  C10 UNL     1     -33.866   6.027   6.239  1.00 20.00     0.010 C 
HETATM    9  C4  UNL     1     -33.445   7.458   6.595  1.00 20.00     0.022 C 
HETATM   10  C5  UNL     1     -35.110   5.625   7.041  1.00 20.00     0.022 C 
HETATM   11  C6  UNL     1     -32.714   5.077   6.619  1.00 20.00     0.022 C 
ENDBRANCH   1   8
TORSDOF 4
