REMARK  4 active torsions:
REMARK  status: ('A' for Active; 'I' for Inactive)
REMARK    1  A    between atoms: C5_5  and  C6_6 
REMARK    2  A    between atoms: C6_6  and  C9_9 
REMARK    3  A    between atoms: C7_7  and  C9_9 
REMARK    4  A    between atoms: C8_8  and  C9_9 
ROOT
HETATM    1  C4  UNL     1     -35.336   6.375   4.201  1.00 20.00     0.016 C 
HETATM    2  C9  UNL     1     -33.823   6.312   3.842  1.00 20.00    -0.029 C 
ENDROOT
BRANCH   2   3
HETATM    3  C6  UNL     1     -33.666   7.189   2.553  1.00 20.00     0.010 C 
BRANCH   3   4
HETATM    4  C5  UNL     1     -32.257   7.381   1.986  1.00 20.00    -0.004 C 
HETATM    5  C1  UNL     1     -32.272   8.323   0.788  1.00 20.00     0.005 C 
ENDBRANCH   3   4
ENDBRANCH   2   3
BRANCH   2   6
HETATM    6  C7  UNL     1     -33.083   6.965   5.050  1.00 20.00     0.124 C 
HETATM    7 CL10 UNL     1     -33.735   6.581   6.662  1.00 20.00    -0.130 Cl
ENDBRANCH   2   6
BRANCH   2   8
HETATM    8  C8  UNL     1     -33.376   4.816   3.610  1.00 20.00    -0.014 C 
HETATM    9  C2  UNL     1     -34.091   4.129   2.435  1.00 20.00     0.010 C 
HETATM   10  C3  UNL     1     -33.524   3.918   4.848  1.00 20.00     0.010 C 
ENDBRANCH   2   8
TORSDOF 4
