REMARK  2 active torsions:
REMARK  status: ('A' for Active; 'I' for Inactive)
REMARK    1  A    between atoms: C5_5  and  C7_7 
REMARK    2  A    between atoms: C7_7  and  N8_8 
ROOT
HETATM    1  C1  UNL     1     -32.339   7.674   1.647  1.00 20.00     0.332 C 
HETATM    2  N8  UNL     1     -32.472   6.730   2.336  1.00 20.00    -0.245 NA
HETATM    3  O9  UNL     1     -32.206   8.618   0.956  1.00 20.00    -0.260 OA
ENDROOT
BRANCH   2   4
HETATM    4  C7  UNL     1     -32.447   7.012   3.765  1.00 20.00     0.190 C 
BRANCH   4   5
HETATM    5  C5  UNL     1     -33.776   6.565   4.369  1.00 20.00     0.075 C 
HETATM    6  C3  UNL     1     -34.018   5.069   4.173  1.00 20.00     0.041 C 
HETATM    7  C2  UNL     1     -34.775   4.690   5.422  1.00 20.00     0.029 C 
HETATM    8  C4  UNL     1     -34.121   5.573   6.461  1.00 20.00     0.169 C 
HETATM    9  O10 UNL     1     -33.730   6.781   5.794  1.00 20.00    -0.379 OA
HETATM   10  C6  UNL     1     -34.922   7.409   3.807  1.00 20.00     0.048 C 
ENDBRANCH   4   5
ENDBRANCH   2   4
TORSDOF 2
