REMARK  3 active torsions:
REMARK  status: ('A' for Active; 'I' for Inactive)
REMARK    1  A    between atoms: C1_1  and  C5_5 
REMARK    2  A    between atoms: C1_1  and  C8_8 
REMARK    3  A    between atoms: C8_8  and  C9_9 
ROOT
HETATM    1  C2  UNL     1     -34.282   5.784   6.536  1.00 20.00     0.029 C 
HETATM    2  C3  UNL     1     -34.092   5.094   5.207  1.00 20.00     0.048 C 
HETATM    3  C4  UNL     1     -33.433   7.022   6.371  1.00 20.00     0.169 C 
HETATM    4  C5  UNL     1     -33.971   6.262   4.234  1.00 20.00     0.117 C 
HETATM    5  C6  UNL     1     -35.280   6.600   3.534  1.00 20.00     0.054 C 
HETATM    6  O11 UNL     1     -33.550   7.405   4.995  1.00 20.00    -0.373 OA
ENDROOT
BRANCH   4   7
HETATM    7  C1  UNL     1     -32.888   6.012   3.228  1.00 20.00     0.160 C 
HETATM    8  O10 UNL     1     -32.605   4.869   2.872  1.00 20.00    -0.295 OA
BRANCH   7   9
HETATM    9  C8  UNL     1     -32.178   7.242   2.690  1.00 20.00     0.081 C 
BRANCH   9  10
HETATM   10  C9  UNL     1     -32.871   7.827   1.462  1.00 20.00     0.003 C 
HETATM   11  C7  UNL     1     -32.161   9.075   0.964  1.00 20.00     0.005 C 
ENDBRANCH   9  10
ENDBRANCH   7   9
ENDBRANCH   4   7
TORSDOF 3
