REMARK  3 active torsions:
REMARK  status: ('A' for Active; 'I' for Inactive)
REMARK    1  A    between atoms: C6_6  and  C10_10 
REMARK    2  A    between atoms: C6_6  and  C11_11 
REMARK    3  A    between atoms: C9_9  and  N12_12 
ROOT
HETATM    1  C1  UNL     1     -32.541   8.648   0.942  1.00 20.00     0.013 C 
HETATM    2  C2  UNL     1     -32.303   7.621   1.516  1.00 20.00    -0.087 C 
HETATM    3  C9  UNL     1     -32.006   6.368   2.214  1.00 20.00     0.364 C 
ENDROOT
BRANCH   3   4
HETATM    4  N12 UNL     1     -33.144   5.946   3.018  1.00 20.00     0.100 N 
HETATM    5  C4  UNL     1     -33.099   4.522   3.352  1.00 20.00     0.274 C 
HETATM    6  C3  UNL     1     -33.998   4.384   4.582  1.00 20.00     0.041 C 
HETATM    7  C6  UNL     1     -34.271   5.824   5.058  1.00 20.00    -0.013 C 
HETATM    8  C5  UNL     1     -33.211   6.640   4.306  1.00 20.00     0.283 C 
BRANCH   7   9
HETATM    9  C10 UNL     1     -34.116   5.967   6.574  1.00 20.00     0.007 C 
HETATM   10  C7  UNL     1     -34.384   7.365   7.013  1.00 20.00     0.006 C 
ENDBRANCH   7   9
BRANCH   7  11
HETATM   11  C11 UNL     1     -35.692   6.257   4.652  1.00 20.00     0.007 C 
HETATM   12  C8  UNL     1     -35.876   6.217   3.171  1.00 20.00     0.006 C 
ENDBRANCH   7  11
ENDBRANCH   3   4
TORSDOF 3
