REMARK  2 active torsions:
REMARK  status: ('A' for Active; 'I' for Inactive)
REMARK    1  A    between atoms: C1_1  and  C6_6 
REMARK    2  A    between atoms: C1_1  and  C9_9 
ROOT
HETATM    1  C2  UNL     1     -34.061   4.667   6.476  1.00 20.00     0.005 C 
HETATM    2  C3  UNL     1     -32.855   5.584   6.229  1.00 20.00     0.006 C 
HETATM    3  C4  UNL     1     -35.250   5.646   4.503  1.00 20.00     0.017 C 
HETATM    4  C5  UNL     1     -34.787   6.935   6.457  1.00 20.00     0.010 C 
HETATM    5  C6  UNL     1     -34.067   6.588   4.226  1.00 20.00     0.061 C 
HETATM    6  C7  UNL     1     -35.250   5.538   6.040  1.00 20.00    -0.013 C 
HETATM    7  C8  UNL     1     -33.497   6.852   5.636  1.00 20.00    -0.003 C 
ENDROOT
BRANCH   5   8
HETATM    8  C1  UNL     1     -33.067   6.019   3.270  1.00 20.00     0.145 C 
HETATM    9  O10 UNL     1     -33.238   4.907   2.773  1.00 20.00    -0.296 OA
BRANCH   8  10
HETATM   10  C9  UNL     1     -31.869   6.893   2.976  1.00 20.00     0.193 C 
HETATM   11 CL11 UNL     1     -32.181   7.935   1.581  1.00 20.00    -0.123 Cl
ENDBRANCH   8  10
ENDBRANCH   5   8
TORSDOF 2
