REMARK  1 active torsions:
REMARK  status: ('A' for Active; 'I' for Inactive)
REMARK    1  A    between atoms: C4_4  and  C6_6 
ROOT
HETATM    1  C1  UNL     1     -33.114   5.596   2.278  1.00 20.00     0.029 C 
HETATM    2  C2  UNL     1     -33.545   4.830   3.505  1.00 20.00     0.041 C 
HETATM    3  C3  UNL     1     -32.561   6.867   2.883  1.00 20.00     0.169 C 
HETATM    4  C4  UNL     1     -34.052   5.937   4.430  1.00 20.00     0.070 C 
HETATM    5  C5  UNL     1     -35.538   6.229   4.212  1.00 20.00     0.047 C 
HETATM    6  O7  UNL     1     -33.315   7.124   4.076  1.00 20.00    -0.379 OA
ENDROOT
BRANCH   4   7
HETATM    7  C6  UNL     1     -33.787   5.618   5.899  1.00 20.00     0.152 C 
HETATM    8 CL8  UNL     1     -34.383   6.934   6.926  1.00 20.00    -0.127 Cl
ENDBRANCH   4   7
TORSDOF 1
