REMARK  3 active torsions:
REMARK  status: ('A' for Active; 'I' for Inactive)
REMARK    1  A    between atoms: C1_1  and  C10_10 
REMARK    2  A    between atoms: C5_5  and  C10_10 
REMARK    3  A    between atoms: C10_10  and  O11_11 
ROOT
HETATM    1  C9  UNL     1     -34.032   4.255   4.601  1.00 20.00     0.051 C 
HETATM    2  C10 UNL     1     -34.567   5.669   4.630  1.00 20.00     0.079 C 
ENDROOT
BRANCH   2   3
HETATM    3  C1  UNL     1     -33.975   6.546   3.539  1.00 20.00     0.013 C 
HETATM    4  C2  UNL     1     -32.694   6.915   3.338  1.00 20.00    -0.088 C 
HETATM    5  C6  UNL     1     -32.334   7.802   2.174  1.00 20.00     0.042 C 
HETATM    6  C7  UNL     1     -31.528   6.538   4.207  1.00 20.00     0.042 C 
ENDBRANCH   2   3
BRANCH   2   7
HETATM    7  C5  UNL     1     -34.282   6.307   6.000  1.00 20.00    -0.010 A 
HETATM    8  C3  UNL     1     -33.475   5.510   6.999  1.00 20.00     0.013 A 
HETATM    9  C4  UNL     1     -34.948   5.705   7.215  1.00 20.00     0.013 A 
HETATM   10  C8  UNL     1     -34.090   7.798   5.968  1.00 20.00     0.018 C 
ENDBRANCH   2   7
BRANCH   2  11
HETATM   11  O11 UNL     1     -35.991   5.627   4.496  1.00 20.00    -0.385 OA
HETATM   12  H29 UNL     1     -36.314   5.059   5.210  1.00 20.00     0.211 HD
ENDBRANCH   2  11
TORSDOF 3
