REMARK  1 active torsions:
REMARK  status: ('A' for Active; 'I' for Inactive)
REMARK    1  A    between atoms: C3_3  and  C8_8 
ROOT
HETATM    1  C1  UNL     1     -33.648   4.746   3.850  1.00 20.00     0.017 A 
HETATM    2  C2  UNL     1     -34.361   4.685   5.082  1.00 20.00     0.032 A 
HETATM    3  C3  UNL     1     -33.349   6.041   3.488  1.00 20.00    -0.012 A 
HETATM    4  C4  UNL     1     -34.580   5.937   5.615  1.00 20.00     0.075 A 
HETATM    5  S10 UNL     1     -33.927   7.177   4.631  1.00 20.00    -0.082 SA
HETATM    6 CL11 UNL     1     -35.391   6.331   7.072  1.00 20.00    -0.076 Cl
ENDROOT
BRANCH   3   7
HETATM    7  C8  UNL     1     -32.609   6.529   2.263  1.00 20.00     0.027 C 
HETATM    8  C5  UNL     1     -31.322   7.326   2.569  1.00 20.00     0.011 C 
HETATM    9  C6  UNL     1     -31.539   8.712   1.967  1.00 20.00     0.021 C 
HETATM   10  C9  UNL     1     -32.470   8.440   0.797  1.00 20.00     0.083 C 
HETATM   11  C7  UNL     1     -33.471   7.452   1.381  1.00 20.00     0.030 C 
HETATM   12 CL12 UNL     1     -33.246   9.912   0.198  1.00 20.00    -0.125 Cl
ENDBRANCH   3   7
TORSDOF 1
