REMARK  3 active torsions:
REMARK  status: ('A' for Active; 'I' for Inactive)
REMARK    1  A    between atoms: C4_4  and  C9_9 
REMARK    2  A    between atoms: C8_8  and  C9_9 
REMARK    3  A    between atoms: C9_9  and  O11_11 
ROOT
HETATM    1  C1  UNL     1     -33.283   4.470   3.255  1.00 20.00     0.066 C 
HETATM    2  C6  UNL     1     -33.150   3.552   5.514  1.00 20.00     0.028 C 
HETATM    3  C8  UNL     1     -34.062   4.251   4.496  1.00 20.00     0.123 C 
HETATM    4  N10 UNL     1     -32.677   4.642   2.281  1.00 20.00    -0.197 NA
ENDROOT
BRANCH   3   5
HETATM    5  C9  UNL     1     -34.680   5.580   5.031  1.00 20.00     0.077 C 
HETATM    6  C7  UNL     1     -35.617   6.196   4.010  1.00 20.00     0.048 C 
BRANCH   5   7
HETATM    7  C4  UNL     1     -33.593   6.609   5.389  1.00 20.00    -0.012 A 
HETATM    8  C2  UNL     1     -32.999   6.559   6.778  1.00 20.00     0.013 A 
HETATM    9  C3  UNL     1     -33.933   7.674   6.405  1.00 20.00     0.013 A 
HETATM   10  C5  UNL     1     -32.688   6.986   4.249  1.00 20.00     0.018 C 
ENDBRANCH   5   7
BRANCH   5  11
HETATM   11  O11 UNL     1     -35.432   5.299   6.216  1.00 20.00    -0.388 OA
HETATM   12  H26 UNL     1     -36.105   4.651   5.962  1.00 20.00     0.210 HD
ENDBRANCH   5  11
ENDBRANCH   3   5
TORSDOF 3
