REMARK  3 active torsions:
REMARK  status: ('A' for Active; 'I' for Inactive)
REMARK    1  A    between atoms: C1_1  and  C3_3 
REMARK    2  A    between atoms: C2_2  and  C8_8 
REMARK    3  A    between atoms: C8_8  and  C10_10 
ROOT
HETATM    1  C4  UNL     1     -34.930   4.759   3.406  1.00 20.00     0.002 C 
HETATM    2  C5  UNL     1     -33.549   4.226   3.785  1.00 20.00     0.002 C 
HETATM    3  C6  UNL     1     -35.125   6.046   4.208  1.00 20.00     0.022 C 
HETATM    4  C7  UNL     1     -32.973   5.215   4.799  1.00 20.00     0.022 C 
HETATM    5  C8  UNL     1     -33.707   6.534   4.529  1.00 20.00     0.024 C 
ENDROOT
BRANCH   5   6
HETATM    6  C2  UNL     1     -33.118   7.235   3.368  1.00 20.00    -0.085 C 
HETATM    7  C1  UNL     1     -32.639   7.805   2.425  1.00 20.00     0.005 C 
BRANCH   7   8
HETATM    8  C3  UNL     1     -32.025   8.536   1.216  1.00 20.00     0.258 C 
HETATM    9  O11 UNL     1     -30.764   8.489   1.124  1.00 20.00    -0.637 OA
HETATM   10  O12 UNL     1     -32.845   9.108   0.441  1.00 20.00    -0.637 OA
ENDBRANCH   7   8
ENDBRANCH   5   6
BRANCH   5  11
HETATM   11  C10 UNL     1     -33.683   7.460   5.743  1.00 20.00     0.018 C 
HETATM   12  C9  UNL     1     -34.268   6.803   6.950  1.00 20.00     0.007 C 
ENDBRANCH   5  11
TORSDOF 3
