REMARK  1 active torsions:
REMARK  status: ('A' for Active; 'I' for Inactive)
REMARK    1  A    between atoms: C4_4  and  C5_5 
ROOT
HETATM    1  C1  UNL     1     -35.364   5.786   5.046  1.00 20.00     0.013 A 
HETATM    2  C2  UNL     1     -34.264   4.905   5.568  1.00 20.00     0.013 A 
HETATM    3  C4  UNL     1     -33.926   6.235   4.935  1.00 20.00    -0.011 A 
HETATM    4  C6  UNL     1     -33.489   7.333   5.872  1.00 20.00     0.018 C 
ENDROOT
BRANCH   3   5
HETATM    5  C5  UNL     1     -33.235   6.285   3.566  1.00 20.00     0.086 A 
HETATM    6  C3  UNL     1     -33.396   7.464   2.646  1.00 20.00     0.207 A 
HETATM    7  O8  UNL     1     -32.220   7.285   3.451  1.00 20.00    -0.375 OA
HETATM    8  C7  UNL     1     -32.843   4.967   2.980  1.00 20.00     0.049 C 
ENDBRANCH   3   5
TORSDOF 1
