REMARK  3 active torsions:
REMARK  status: ('A' for Active; 'I' for Inactive)
REMARK    1  A    between atoms: C3_3  and  C6_6 
REMARK    2  A    between atoms: C6_6  and  C7_7 
REMARK    3  A    between atoms: C6_6  and  O8_8 
ROOT
HETATM    1  C5  UNL     1     -36.070   6.266   4.266  1.00 20.00     0.056 C 
HETATM    2  C6  UNL     1     -34.766   5.674   4.766  1.00 20.00     0.158 C 
ENDROOT
BRANCH   2   3
HETATM    3  C3  UNL     1     -34.518   6.030   6.206  1.00 20.00    -0.004 A 
HETATM    4  C1  UNL     1     -34.414   7.493   6.567  1.00 20.00     0.013 A 
HETATM    5  C2  UNL     1     -33.181   6.634   6.566  1.00 20.00     0.013 A 
HETATM    6  C4  UNL     1     -35.164   5.103   7.199  1.00 20.00     0.018 C 
ENDBRANCH   2   3
BRANCH   2   7
HETATM    7  C7  UNL     1     -33.609   6.118   3.862  1.00 20.00     0.418 C 
HETATM    8  F9  UNL     1     -32.454   5.523   4.237  1.00 20.00    -0.168 F 
HETATM    9  F10 UNL     1     -33.408   7.454   3.903  1.00 20.00    -0.168 F 
HETATM   10  F11 UNL     1     -33.841   5.778   2.575  1.00 20.00    -0.168 F 
ENDBRANCH   2   7
BRANCH   2  11
HETATM   11  O8  UNL     1     -34.876   4.246   4.644  1.00 20.00    -0.380 OA
HETATM   12  H22 UNL     1     -35.621   3.990   5.203  1.00 20.00     0.211 HD
ENDBRANCH   2  11
TORSDOF 3
