REMARK  4 active torsions:
REMARK  status: ('A' for Active; 'I' for Inactive)
REMARK    1  A    between atoms: C3_3  and  C10_10 
REMARK    2  A    between atoms: C8_8  and  C9_9 
REMARK    3  A    between atoms: C9_9  and  C10_10 
REMARK    4  A    between atoms: C10_10  and  O11_11 
ROOT
HETATM    1  C7  UNL     1     -34.170   3.847   4.625  1.00 20.00     0.047 C 
HETATM    2  C10 UNL     1     -34.035   5.357   4.600  1.00 20.00     0.065 C 
ENDROOT
BRANCH   2   3
HETATM    3  C3  UNL     1     -33.783   5.878   6.020  1.00 20.00    -0.013 A 
HETATM    4  C1  UNL     1     -34.982   6.239   6.865  1.00 20.00     0.013 A 
HETATM    5  C2  UNL     1     -34.105   7.325   6.310  1.00 20.00     0.013 A 
HETATM    6  C4  UNL     1     -32.593   5.268   6.708  1.00 20.00     0.018 C 
ENDBRANCH   2   3
BRANCH   2   7
HETATM    7  C9  UNL     1     -32.958   5.826   3.565  1.00 20.00     0.016 C 
HETATM    8  C6  UNL     1     -33.181   5.197   2.178  1.00 20.00     0.013 C 
BRANCH   7   9
HETATM    9  C8  UNL     1     -32.846   7.365   3.457  1.00 20.00     0.002 C 
HETATM   10  C5  UNL     1     -31.768   7.834   2.488  1.00 20.00     0.005 C 
ENDBRANCH   7   9
ENDBRANCH   2   7
BRANCH   2  11
HETATM   11  O11 UNL     1     -35.310   5.883   4.200  1.00 20.00    -0.389 OA
HETATM   12  H31 UNL     1     -35.465   5.552   3.305  1.00 20.00     0.210 HD
ENDBRANCH   2  11
TORSDOF 4
