REMARK  2 active torsions:
REMARK  status: ('A' for Active; 'I' for Inactive)
REMARK    1  A    between atoms: C1_1  and  C4_4 
REMARK    2  A    between atoms: C1_1  and  C6_6 
ROOT
HETATM    1  C2  UNL     1     -34.373   4.990   5.870  1.00 20.00     0.018 A 
HETATM    2  C3  UNL     1     -35.344   6.058   5.470  1.00 20.00     0.018 A 
HETATM    3  C4  UNL     1     -33.855   6.322   5.370  1.00 20.00     0.018 A 
HETATM    4  C5  UNL     1     -33.254   7.252   6.393  1.00 20.00     0.023 C 
ENDROOT
BRANCH   3   5
HETATM    5  C1  UNL     1     -33.268   6.346   4.008  1.00 20.00     0.148 C 
HETATM    6  O7  UNL     1     -33.213   5.321   3.332  1.00 20.00    -0.296 OA
BRANCH   5   7
HETATM    7  C6  UNL     1     -32.759   7.689   3.537  1.00 20.00     0.193 C 
HETATM    8 CL8  UNL     1     -32.074   7.563   1.910  1.00 20.00    -0.123 Cl
ENDBRANCH   5   7
ENDBRANCH   3   5
TORSDOF 2
