REMARK  4 active torsions:
REMARK  status: ('A' for Active; 'I' for Inactive)
REMARK    1  A    between atoms: C2_2  and  C7_7 
REMARK    2  A    between atoms: C7_7  and  O11_11 
REMARK    3  A    between atoms: C8_8  and  C9_9 
REMARK    4  A    between atoms: C9_9  and  O11_11 
ROOT
HETATM    1  O11 UNL     1     -33.422   5.689   4.084  1.00 20.00    -0.383 OA
ENDROOT
BRANCH   1   2
HETATM    2  C7  UNL     1     -33.147   5.870   2.704  1.00 20.00     0.208 C 
BRANCH   2   3
HETATM    3  C2  UNL     1     -32.495   7.222   2.505  1.00 20.00     0.100 A 
HETATM    4  C1  UNL     1     -32.500   7.856   1.134  1.00 20.00     0.208 A 
HETATM    5  O10 UNL     1     -33.419   8.264   2.159  1.00 20.00    -0.373 OA
HETATM    6  C3  UNL     1     -31.465   7.637   3.504  1.00 20.00     0.050 C 
ENDBRANCH   2   3
ENDBRANCH   1   2
BRANCH   1   7
HETATM    7  C9  UNL     1     -34.614   6.377   4.469  1.00 20.00     0.120 C 
HETATM    8  C6  UNL     1     -35.804   5.519   4.052  1.00 20.00     0.040 C 
BRANCH   7   9
HETATM    9  C8  UNL     1     -34.555   6.652   5.986  1.00 20.00     0.006 C 
HETATM   10  C4  UNL     1     -33.636   7.824   6.334  1.00 20.00     0.012 C 
HETATM   11  C5  UNL     1     -34.097   5.402   6.750  1.00 20.00     0.012 C 
ENDBRANCH   7   9
ENDBRANCH   1   7
TORSDOF 4
