REMARK  0 active torsions:
REMARK  status: ('A' for Active; 'I' for Inactive)
ROOT
HETATM    1  C1  UNL     1     -32.628   7.591   4.365  1.00 20.00     0.005 C 
HETATM    2  C2  UNL     1     -33.232   7.234   5.625  1.00 20.00     0.041 C 
HETATM    3  C3  UNL     1     -32.841   6.868   3.252  1.00 20.00    -0.081 C 
HETATM    4  C4  UNL     1     -34.200   6.312   5.691  1.00 20.00     0.128 C 
HETATM    5  C5  UNL     1     -33.746   5.655   3.269  1.00 20.00     0.078 C 
HETATM    6  C6  UNL     1     -34.698   5.591   4.476  1.00 20.00     0.235 C 
HETATM    7  C7  UNL     1     -32.182   7.197   1.946  1.00 20.00     0.043 C 
HETATM    8  F8  UNL     1     -34.744   6.020   6.892  1.00 20.00    -0.208 F 
HETATM    9  F9  UNL     1     -35.892   6.134   4.096  1.00 20.00    -0.242 F 
ENDROOT
TORSDOF 0
