REMARK  3 active torsions:
REMARK  status: ('A' for Active; 'I' for Inactive)
REMARK    1  A    between atoms: C3_3  and  C6_6 
REMARK    2  A    between atoms: C5_5  and  C6_6 
REMARK    3  A    between atoms: C5_5  and  O7_7 
ROOT
HETATM    1  C6  UNL     1     -33.566   7.102   4.299  1.00 20.00     0.110 C 
HETATM    2 CL8  UNL     1     -34.142   5.425   3.972  1.00 20.00    -0.122 Cl
ENDROOT
BRANCH   1   3
HETATM    3  C3  UNL     1     -33.626   7.386   5.760  1.00 20.00     0.006 A 
HETATM    4  C1  UNL     1     -34.742   6.824   6.597  1.00 20.00     0.006 A 
HETATM    5  C2  UNL     1     -33.343   6.296   6.756  1.00 20.00     0.006 A 
ENDBRANCH   1   3
BRANCH   1   6
HETATM    6  C5  UNL     1     -32.149   7.259   3.723  1.00 20.00     0.187 C 
BRANCH   6   7
HETATM    7  O7  UNL     1     -32.143   7.007   2.323  1.00 20.00    -0.394 OA
HETATM    8  C4  UNL     1     -32.657   8.113   1.593  1.00 20.00     0.201 C 
ENDBRANCH   6   7
ENDBRANCH   1   6
TORSDOF 3
