REMARK  0 active torsions:
REMARK  status: ('A' for Active; 'I' for Inactive)
ROOT
HETATM    1  C1  UNL     1     -32.710   7.562   2.264  1.00 20.00     0.128 C 
HETATM    2  C2  UNL     1     -34.109   7.651   2.896  1.00 20.00     0.088 C 
HETATM    3  C3  UNL     1     -32.355   6.311   3.085  1.00 20.00     0.088 C 
HETATM    4  C4  UNL     1     -34.988   6.248   6.868  1.00 20.00     0.000 C 
HETATM    5  C5  UNL     1     -34.216   4.950   6.642  1.00 20.00     0.000 C 
HETATM    6  C6  UNL     1     -34.374   7.514   6.252  1.00 20.00     0.001 C 
HETATM    7  C7  UNL     1     -34.160   4.448   5.193  1.00 20.00     0.001 C 
HETATM    8  C8  UNL     1     -33.201   7.301   5.297  1.00 20.00     0.010 C 
HETATM    9  C9  UNL     1     -34.575   5.444   4.114  1.00 20.00     0.010 C 
HETATM   10  C10 UNL     1     -33.609   6.627   3.976  1.00 20.00    -0.027 C 
HETATM   11  O11 UNL     1     -32.113   8.227   1.445  1.00 20.00    -0.298 OA
ENDROOT
TORSDOF 0
