REMARK  1 active torsions:
REMARK  status: ('A' for Active; 'I' for Inactive)
REMARK    1  A    between atoms: C6_6  and  O8_8 
ROOT
HETATM    1  C1  UNL     1     -32.089   7.174   2.208  1.00 20.00     0.002 C 
HETATM    2  C2  UNL     1     -33.627   7.267   2.381  1.00 20.00     0.010 C 
HETATM    3  C3  UNL     1     -31.965   7.176   3.754  1.00 20.00     0.010 C 
HETATM    4  C4  UNL     1     -34.319   7.215   4.890  1.00 20.00     0.041 C 
HETATM    5  C5  UNL     1     -33.743   5.300   4.067  1.00 20.00     0.041 C 
HETATM    6  C6  UNL     1     -35.004   5.821   4.813  1.00 20.00     0.119 C 
HETATM    7  C7  UNL     1     -33.410   6.747   3.786  1.00 20.00    -0.036 C 
ENDROOT
BRANCH   6   8
HETATM    8  O8  UNL     1     -35.293   5.197   6.075  1.00 20.00    -0.396 OA
HETATM    9  H20 UNL     1     -35.711   4.352   5.862  1.00 20.00     0.210 HD
ENDBRANCH   6   8
TORSDOF 1
