REMARK  3 active torsions:
REMARK  status: ('A' for Active; 'I' for Inactive)
REMARK    1  A    between atoms: C4_4  and  O7_7 
REMARK    2  A    between atoms: C5_5  and  C6_6 
REMARK    3  A    between atoms: C6_6  and  O7_7 
ROOT
HETATM    1  C3  UNL     1     -35.721   5.972   4.629  1.00 20.00     0.040 C 
HETATM    2  C6  UNL     1     -34.242   6.329   4.731  1.00 20.00     0.122 C 
ENDROOT
BRANCH   2   3
HETATM    3  C5  UNL     1     -33.718   6.374   6.182  1.00 20.00     0.006 C 
HETATM    4  C1  UNL     1     -33.933   5.052   6.923  1.00 20.00     0.012 C 
HETATM    5  C2  UNL     1     -34.384   7.512   6.967  1.00 20.00     0.012 C 
ENDBRANCH   2   3
BRANCH   2   6
HETATM    6  O7  UNL     1     -33.501   5.343   4.009  1.00 20.00    -0.371 OA
BRANCH   6   7
HETATM    7  C4  UNL     1     -33.530   5.599   2.615  1.00 20.00     0.282 C 
HETATM    8 CL8  UNL     1     -32.311   6.831   2.242  1.00 20.00    -0.102 Cl
ENDBRANCH   6   7
ENDBRANCH   2   6
TORSDOF 3
