REMARK  4 active torsions:
REMARK  status: ('A' for Active; 'I' for Inactive)
REMARK    1  A    between atoms: C4_4  and  C7_7 
REMARK    2  A    between atoms: C4_4  and  C8_8 
REMARK    3  A    between atoms: C7_7  and  C9_9 
REMARK    4  A    between atoms: C8_8  and  C10_10 
ROOT
HETATM    1  C1  UNL     1     -33.582   7.478   5.774  1.00 20.00     0.128 C 
HETATM    2  C2  UNL     1     -32.341   7.645   4.879  1.00 20.00     0.088 C 
HETATM    3  C3  UNL     1     -34.126   6.329   4.907  1.00 20.00     0.088 C 
HETATM    4  C4  UNL     1     -33.065   6.737   3.833  1.00 20.00    -0.027 C 
HETATM    5  O11 UNL     1     -33.982   8.042   6.770  1.00 20.00    -0.298 OA
ENDROOT
BRANCH   4   6
HETATM    6  C7  UNL     1     -33.666   7.526   2.668  1.00 20.00     0.010 C 
BRANCH   6   7
HETATM    7  C9  UNL     1     -32.594   7.916   1.657  1.00 20.00    -0.004 C 
HETATM    8  C5  UNL     1     -33.194   8.678   0.487  1.00 20.00     0.005 C 
ENDBRANCH   6   7
ENDBRANCH   4   6
BRANCH   4   9
HETATM    9  C8  UNL     1     -32.213   5.571   3.340  1.00 20.00     0.010 C 
BRANCH   9  10
HETATM   10  C10 UNL     1     -32.983   4.700   2.353  1.00 20.00    -0.004 C 
HETATM   11  C6  UNL     1     -34.221   4.096   2.997  1.00 20.00     0.005 C 
ENDBRANCH   9  10
ENDBRANCH   4   9
TORSDOF 4
