REMARK  3 active torsions:
REMARK  status: ('A' for Active; 'I' for Inactive)
REMARK    1  A    between atoms: C3_3  and  C6_6 
REMARK    2  A    between atoms: C5_5  and  C6_6 
REMARK    3  A    between atoms: C5_5  and  O7_7 
ROOT
HETATM    1  C6  UNL     1     -32.697   6.603   3.612  1.00 20.00     0.110 C 
HETATM    2 CL8  UNL     1     -33.157   5.189   2.592  1.00 20.00    -0.122 Cl
ENDROOT
BRANCH   1   3
HETATM    3  C3  UNL     1     -33.859   7.044   4.432  1.00 20.00     0.006 A 
HETATM    4  C1  UNL     1     -34.270   6.261   5.648  1.00 20.00     0.006 A 
HETATM    5  C2  UNL     1     -33.643   7.619   5.805  1.00 20.00     0.006 A 
ENDBRANCH   1   3
BRANCH   1   6
HETATM    6  C5  UNL     1     -32.164   7.713   2.692  1.00 20.00     0.187 C 
BRANCH   6   7
HETATM    7  O7  UNL     1     -33.181   8.168   1.808  1.00 20.00    -0.394 OA
HETATM    8  C4  UNL     1     -32.722   9.237   0.993  1.00 20.00     0.201 C 
ENDBRANCH   6   7
ENDBRANCH   1   6
TORSDOF 3
