REMARK  3 active torsions:
REMARK  status: ('A' for Active; 'I' for Inactive)
REMARK    1  A    between atoms: C4_4  and  C7_7 
REMARK    2  A    between atoms: C6_6  and  C7_7 
REMARK    3  A    between atoms: C6_6  and  O9_9 
ROOT
HETATM    1  C1  UNL     1     -32.613   7.745   2.929  1.00 20.00     0.066 C 
HETATM    2  C7  UNL     1     -33.210   6.697   3.773  1.00 20.00     0.120 C 
HETATM    3  N8  UNL     1     -32.139   8.573   2.269  1.00 20.00    -0.197 NA
ENDROOT
BRANCH   2   4
HETATM    4  C4  UNL     1     -33.739   5.673   2.808  1.00 20.00     0.005 A 
HETATM    5  C2  UNL     1     -32.832   4.605   2.263  1.00 20.00     0.006 A 
HETATM    6  C3  UNL     1     -33.915   4.244   3.241  1.00 20.00     0.006 A 
ENDBRANCH   2   4
BRANCH   2   7
HETATM    7  C6  UNL     1     -34.289   7.251   4.701  1.00 20.00     0.186 C 
BRANCH   7   8
HETATM    8  O9  UNL     1     -34.847   6.222   5.510  1.00 20.00    -0.395 OA
HETATM    9  C5  UNL     1     -34.025   5.939   6.633  1.00 20.00     0.201 C 
ENDBRANCH   7   8
ENDBRANCH   2   7
TORSDOF 3
