REMARK  3 active torsions:
REMARK  status: ('A' for Active; 'I' for Inactive)
REMARK    1  A    between atoms: C5_5  and  C7_7 
REMARK    2  A    between atoms: C5_5  and  O9_9 
REMARK    3  A    between atoms: C6_6  and  C7_7 
ROOT
HETATM    1  C1  UNL     1     -33.144   5.225   3.344  1.00 20.00     0.088 C 
HETATM    2  C7  UNL     1     -33.539   6.300   4.284  1.00 20.00     0.149 C 
HETATM    3  N8  UNL     1     -32.830   4.385   2.608  1.00 20.00    -0.195 NA
HETATM    4 CL10 UNL     1     -35.137   6.909   3.712  1.00 20.00    -0.100 Cl
ENDROOT
BRANCH   2   5
HETATM    5  C5  UNL     1     -32.516   7.451   4.194  1.00 20.00     0.208 C 
BRANCH   5   6
HETATM    6  O9  UNL     1     -32.466   7.998   2.878  1.00 20.00    -0.393 OA
HETATM    7  C4  UNL     1     -31.488   9.022   2.780  1.00 20.00     0.201 C 
ENDBRANCH   5   6
ENDBRANCH   2   5
BRANCH   2   8
HETATM    8  C6  UNL     1     -33.641   5.730   5.738  1.00 20.00     0.017 C 
HETATM    9  C2  UNL     1     -33.994   6.786   6.796  1.00 20.00     0.012 C 
HETATM   10  C3  UNL     1     -34.627   4.555   5.876  1.00 20.00     0.012 C 
ENDBRANCH   2   8
TORSDOF 3
