REMARK  5 active torsions:
REMARK  status: ('A' for Active; 'I' for Inactive)
REMARK    1  A    between atoms: C1_1  and  C7_7 
REMARK    2  A    between atoms: C1_1  and  C9_9 
REMARK    3  A    between atoms: C4_4  and  C9_9 
REMARK    4  A    between atoms: C8_8  and  C9_9 
REMARK    5  A    between atoms: C8_8  and  O11_11 
ROOT
HETATM    1  C9  UNL     1     -33.039   6.581   3.888  1.00 20.00     0.083 C 
ENDROOT
BRANCH   1   2
HETATM    2  C1  UNL     1     -32.385   7.668   3.029  1.00 20.00     0.133 C 
HETATM    3  O10 UNL     1     -31.963   8.715   3.521  1.00 20.00    -0.297 OA
BRANCH   2   4
HETATM    4  C7  UNL     1     -32.314   7.403   1.533  1.00 20.00     0.074 C 
HETATM    5  C5  UNL     1     -31.621   8.523   0.777  1.00 20.00     0.013 C 
ENDBRANCH   2   4
ENDBRANCH   1   2
BRANCH   1   6
HETATM    6  C4  UNL     1     -33.438   5.385   3.061  1.00 20.00    -0.001 A 
HETATM    7  C2  UNL     1     -32.436   4.306   2.754  1.00 20.00     0.006 A 
HETATM    8  C3  UNL     1     -33.571   4.031   3.702  1.00 20.00     0.006 A 
ENDBRANCH   1   6
BRANCH   1   9
HETATM    9  C8  UNL     1     -34.252   7.155   4.626  1.00 20.00     0.179 C 
BRANCH   9  10
HETATM   10  O11 UNL     1     -34.846   6.140   5.426  1.00 20.00    -0.395 OA
HETATM   11  C6  UNL     1     -34.110   5.923   6.622  1.00 20.00     0.201 C 
ENDBRANCH   9  10
ENDBRANCH   1   9
TORSDOF 5
