REMARK  3 active torsions:
REMARK  status: ('A' for Active; 'I' for Inactive)
REMARK    1  A    between atoms: C1_1  and  C4_4 
REMARK    2  A    between atoms: C1_1  and  C7_7 
REMARK    3  A    between atoms: C7_7  and  O9_9 
ROOT
HETATM    1  C1  UNL     1     -33.298   5.976   3.872  1.00 20.00     0.158 C 
HETATM    2  O8  UNL     1     -33.208   4.877   3.327  1.00 20.00    -0.295 OA
ENDROOT
BRANCH   1   3
HETATM    3  C4  UNL     1     -33.912   6.122   5.214  1.00 20.00     0.019 A 
HETATM    4  C2  UNL     1     -34.421   4.859   5.878  1.00 20.00     0.018 A 
HETATM    5  C3  UNL     1     -35.398   5.849   5.321  1.00 20.00     0.018 A 
HETATM    6  C5  UNL     1     -33.345   7.189   6.115  1.00 20.00     0.023 C 
ENDBRANCH   1   3
BRANCH   1   7
HETATM    7  C7  UNL     1     -32.794   7.247   3.223  1.00 20.00     0.246 C 
BRANCH   7   8
HETATM    8  O9  UNL     1     -32.246   6.974   1.951  1.00 20.00    -0.389 OA
HETATM    9  C6  UNL     1     -31.764   8.155   1.316  1.00 20.00     0.202 C 
ENDBRANCH   7   8
ENDBRANCH   1   7
TORSDOF 3
