REMARK  5 active torsions:
REMARK  status: ('A' for Active; 'I' for Inactive)
REMARK    1  A    between atoms: C3_3  and  C9_9 
REMARK    2  A    between atoms: C7_7  and  C10_10 
REMARK    3  A    between atoms: C8_8  and  C10_10 
REMARK    4  A    between atoms: C9_9  and  C10_10 
REMARK    5  A    between atoms: C9_9  and  O11_11 
ROOT
HETATM    1  C9  UNL     1     -34.668   6.579   4.631  1.00 20.00     0.130 C 
ENDROOT
BRANCH   1   2
HETATM    2  C3  UNL     1     -34.357   6.712   6.118  1.00 20.00    -0.018 A 
HETATM    3  C1  UNL     1     -33.488   5.655   6.758  1.00 20.00     0.012 A 
HETATM    4  C2  UNL     1     -34.958   5.697   7.062  1.00 20.00     0.012 A 
HETATM    5  C4  UNL     1     -34.216   8.129   6.603  1.00 20.00     0.018 C 
ENDBRANCH   1   2
BRANCH   1   6
HETATM    6  C10 UNL     1     -33.409   6.498   3.730  1.00 20.00     0.014 C 
BRANCH   6   7
HETATM    7  C7  UNL     1     -32.468   7.714   3.881  1.00 20.00     0.002 C 
HETATM    8  C5  UNL     1     -33.078   9.051   3.486  1.00 20.00     0.005 C 
ENDBRANCH   6   7
BRANCH   6   9
HETATM    9  C8  UNL     1     -33.829   6.235   2.261  1.00 20.00     0.002 C 
HETATM   10  C6  UNL     1     -32.662   6.030   1.305  1.00 20.00     0.005 C 
ENDBRANCH   6   9
ENDBRANCH   1   6
BRANCH   1  11
HETATM   11  O11 UNL     1     -35.431   5.381   4.456  1.00 20.00    -0.394 OA
HETATM   12  H31 UNL     1     -34.875   4.656   4.775  1.00 20.00     0.210 HD
ENDBRANCH   1  11
TORSDOF 5
