REMARK  1 active torsions:
REMARK  status: ('A' for Active; 'I' for Inactive)
REMARK    1  A    between atoms: C8_8  and  C9_9 
ROOT
HETATM    1  C1  UNL     1     -34.098   5.294   5.348  1.00 20.00     0.074 C 
HETATM    2  C2  UNL     1     -33.710   4.669   4.232  1.00 20.00     0.139 C 
HETATM    3  C3  UNL     1     -34.024   6.771   5.371  1.00 20.00     0.153 C 
HETATM    4  C4  UNL     1     -33.628   7.447   4.083  1.00 20.00     0.116 C 
HETATM    5  C9  UNL     1     -32.633   6.557   3.345  1.00 20.00     0.139 C 
HETATM    6  O10 UNL     1     -34.341   7.398   6.377  1.00 20.00    -0.293 OA
HETATM    7  O11 UNL     1     -33.158   5.242   3.116  1.00 20.00    -0.357 OA
ENDROOT
BRANCH   5   8
HETATM    8  C8  UNL     1     -32.303   7.163   1.997  1.00 20.00     0.015 C 
HETATM    9  C6  UNL     1     -31.889   8.658   1.988  1.00 20.00     0.007 C 
HETATM   10  C5  UNL     1     -32.657   8.786   0.656  1.00 20.00     0.001 C 
HETATM   11  C7  UNL     1     -33.505   7.581   1.110  1.00 20.00     0.007 C 
ENDBRANCH   5   8
TORSDOF 1
