REMARK  3 active torsions:
REMARK  status: ('A' for Active; 'I' for Inactive)
REMARK    1  A    between atoms: C3_3  and  C7_7 
REMARK    2  A    between atoms: C6_6  and  C7_7 
REMARK    3  A    between atoms: C7_7  and  O8_8 
ROOT
HETATM    1  C7  UNL     1     -34.739   6.208   4.512  1.00 20.00     0.126 C 
ENDROOT
BRANCH   1   2
HETATM    2  C3  UNL     1     -33.871   6.628   5.667  1.00 20.00    -0.018 A 
HETATM    3  C1  UNL     1     -34.245   7.887   6.414  1.00 20.00     0.012 A 
HETATM    4  C2  UNL     1     -33.044   7.882   5.512  1.00 20.00     0.012 A 
HETATM    5  C4  UNL     1     -33.284   5.489   6.454  1.00 20.00     0.018 C 
ENDBRANCH   1   2
BRANCH   1   6
HETATM    6  C6  UNL     1     -33.949   5.411   3.462  1.00 20.00     0.028 C 
HETATM    7  C5  UNL     1     -32.832   6.222   2.819  1.00 20.00     0.007 C 
ENDBRANCH   1   6
BRANCH   1   8
HETATM    8  O8  UNL     1     -35.810   5.389   4.991  1.00 20.00    -0.395 OA
HETATM    9  H22 UNL     1     -35.396   4.621   5.411  1.00 20.00     0.210 HD
ENDBRANCH   1   8
TORSDOF 3
