REMARK  5 active torsions:
REMARK  status: ('A' for Active; 'I' for Inactive)
REMARK    1  A    between atoms: C2_2  and  C8_8 
REMARK    2  A    between atoms: C2_2  and  C9_9 
REMARK    3  A    between atoms: C3_3  and  C8_8 
REMARK    4  A    between atoms: C3_3  and  C10_10 
REMARK    5  A    between atoms: C6_6  and  C10_10 
ROOT
HETATM    1  C3  UNL     1     -32.621   6.790   3.239  1.00 20.00     0.131 C 
HETATM    2  O11 UNL     1     -31.860   7.537   3.852  1.00 20.00    -0.298 OA
ENDROOT
BRANCH   1   3
HETATM    3  C8  UNL     1     -33.331   5.617   3.906  1.00 20.00     0.111 C 
BRANCH   3   4
HETATM    4  C2  UNL     1     -34.623   6.038   4.556  1.00 20.00    -0.083 C 
HETATM    5  C1  UNL     1     -35.781   6.018   3.876  1.00 20.00     0.014 C 
BRANCH   4   6
HETATM    6  C9  UNL     1     -34.572   6.490   5.998  1.00 20.00     0.029 C 
HETATM    7  C7  UNL     1     -34.328   7.986   6.136  1.00 20.00     0.010 C 
ENDBRANCH   4   6
ENDBRANCH   3   4
ENDBRANCH   1   3
BRANCH   1   8
HETATM    8  C10 UNL     1     -32.949   7.001   1.772  1.00 20.00     0.083 C 
BRANCH   8   9
HETATM    9  C6  UNL     1     -32.257   8.179   1.162  1.00 20.00    -0.008 A 
HETATM   10  C4  UNL     1     -32.782   8.792  -0.107  1.00 20.00     0.005 A 
HETATM   11  C5  UNL     1     -32.903   9.536   1.194  1.00 20.00     0.005 A 
ENDBRANCH   8   9
ENDBRANCH   1   8
TORSDOF 5
