REMARK  4 active torsions:
REMARK  status: ('A' for Active; 'I' for Inactive)
REMARK    1  A    between atoms: C1_1  and  C4_4 
REMARK    2  A    between atoms: C1_1  and  C9_9 
REMARK    3  A    between atoms: C9_9  and  C10_10 
REMARK    4  A    between atoms: C10_10  and  C11_11 
ROOT
HETATM    1  C1  UNL     1     -33.540   5.640   3.935  1.00 20.00     0.135 C 
HETATM    2  O12 UNL     1     -34.192   4.721   3.455  1.00 20.00    -0.297 OA
ENDROOT
BRANCH   1   3
HETATM    3  C4  UNL     1     -33.688   5.983   5.380  1.00 20.00     0.017 A 
HETATM    4  C2  UNL     1     -33.350   4.895   6.372  1.00 20.00     0.018 A 
HETATM    5  C3  UNL     1     -34.783   5.267   6.136  1.00 20.00     0.018 A 
HETATM    6  C5  UNL     1     -33.384   7.402   5.773  1.00 20.00     0.023 C 
ENDBRANCH   1   3
BRANCH   1   7
HETATM    7  C9  UNL     1     -32.553   6.494   3.165  1.00 20.00     0.080 C 
BRANCH   7   8
HETATM    8  C10 UNL     1     -33.228   7.708   2.521  1.00 20.00     0.015 C 
BRANCH   8   9
HETATM    9  C11 UNL     1     -32.308   8.607   1.653  1.00 20.00    -0.051 C 
HETATM   10  C6  UNL     1     -31.213   9.195   2.564  1.00 20.00     0.014 C 
HETATM   11  C7  UNL     1     -33.097   9.768   1.026  1.00 20.00     0.014 C 
HETATM   12  C8  UNL     1     -31.630   7.795   0.537  1.00 20.00     0.014 C 
ENDBRANCH   8   9
ENDBRANCH   7   8
ENDBRANCH   1   7
TORSDOF 4
