REMARK  4 active torsions:
REMARK  status: ('A' for Active; 'I' for Inactive)
REMARK    1  A    between atoms: C2_2  and  C8_8 
REMARK    2  A    between atoms: C3_3  and  C8_8 
REMARK    3  A    between atoms: C3_3  and  C9_9 
REMARK    4  A    between atoms: C6_6  and  C9_9 
ROOT
HETATM    1  C1  UNL     1     -32.582   8.736   1.109  1.00 20.00    -0.111 C 
HETATM    2  C2  UNL     1     -32.277   8.067   2.058  1.00 20.00    -0.100 C 
HETATM    3  C7  UNL     1     -32.955   9.551  -0.047  1.00 20.00     0.112 C 
ENDROOT
BRANCH   2   4
HETATM    4  C8  UNL     1     -31.898   7.253   3.219  1.00 20.00     0.172 C 
BRANCH   4   5
HETATM    5  C3  UNL     1     -32.933   6.193   3.550  1.00 20.00     0.138 C 
HETATM    6  O10 UNL     1     -32.914   5.070   3.047  1.00 20.00    -0.297 OA
BRANCH   5   7
HETATM    7  C9  UNL     1     -34.000   6.610   4.547  1.00 20.00     0.083 C 
BRANCH   7   8
HETATM    8  C6  UNL     1     -33.652   6.300   5.969  1.00 20.00    -0.007 A 
HETATM    9  C4  UNL     1     -34.729   6.231   7.015  1.00 20.00     0.005 A 
HETATM   10  C5  UNL     1     -34.032   4.976   6.569  1.00 20.00     0.005 A 
ENDBRANCH   7   8
ENDBRANCH   5   7
ENDBRANCH   4   5
ENDBRANCH   2   4
TORSDOF 4
