REMARK  3 active torsions:
REMARK  status: ('A' for Active; 'I' for Inactive)
REMARK    1  A    between atoms: C5_5  and  C8_8 
REMARK    2  A    between atoms: C7_7  and  C8_8 
REMARK    3  A    between atoms: C8_8  and  O9_9 
ROOT
HETATM    1  C1  UNL     1     -31.913   7.122   3.155  1.00 20.00     0.012 C 
HETATM    2  C2  UNL     1     -32.837   6.393   3.392  1.00 20.00    -0.115 C 
HETATM    3  C7  UNL     1     -33.968   5.496   3.679  1.00 20.00     0.125 C 
ENDROOT
BRANCH   3   4
HETATM    4  C8  UNL     1     -34.898   6.067   4.762  1.00 20.00     0.137 C 
BRANCH   4   5
HETATM    5  C5  UNL     1     -34.193   6.215   6.082  1.00 20.00    -0.017 A 
HETATM    6  C3  UNL     1     -34.687   7.281   7.033  1.00 20.00     0.012 A 
HETATM    7  C4  UNL     1     -33.381   7.468   6.315  1.00 20.00     0.012 A 
HETATM    8  C6  UNL     1     -33.686   4.927   6.669  1.00 20.00     0.018 C 
ENDBRANCH   4   5
BRANCH   4   9
HETATM    9  O9  UNL     1     -36.005   5.170   4.915  1.00 20.00    -0.394 OA
HETATM   10  H21 UNL     1     -36.423   5.109   4.044  1.00 20.00     0.210 HD
ENDBRANCH   4   9
ENDBRANCH   3   4
TORSDOF 3
