REMARK  6 active torsions:
REMARK  status: ('A' for Active; 'I' for Inactive)
REMARK    1  A    between atoms: C5_5  and  C10_10 
REMARK    2  A    between atoms: C6_6  and  C7_7 
REMARK    3  A    between atoms: C6_6  and  C10_10 
REMARK    4  A    between atoms: C7_7  and  C11_11 
REMARK    5  A    between atoms: C8_8  and  C9_9 
REMARK    6  A    between atoms: C8_8  and  C11_11 
ROOT
HETATM    1  C7  UNL     1     -32.703   6.954   4.011  1.00 20.00     0.020 C 
ENDROOT
BRANCH   1   2
HETATM    2  C6  UNL     1     -34.175   7.065   4.437  1.00 20.00     0.005 C 
BRANCH   2   3
HETATM    3  C10 UNL     1     -34.358   7.125   5.968  1.00 20.00    -0.019 C 
HETATM    4  C4  UNL     1     -34.107   8.530   6.523  1.00 20.00     0.010 C 
BRANCH   3   5
HETATM    5  C5  UNL     1     -33.487   6.072   6.686  1.00 20.00    -0.000 C 
HETATM    6  C1  UNL     1     -33.724   4.629   6.261  1.00 20.00     0.005 C 
ENDBRANCH   3   5
ENDBRANCH   2   3
ENDBRANCH   1   2
BRANCH   1   7
HETATM    7  C11 UNL     1     -32.513   6.869   2.487  1.00 20.00     0.082 C 
HETATM    8 CL12 UNL     1     -33.711   5.734   1.768  1.00 20.00    -0.125 Cl
BRANCH   7   9
HETATM    9  C8  UNL     1     -32.676   8.225   1.778  1.00 20.00     0.024 C 
BRANCH   9  10
HETATM   10  C9  UNL     1     -33.032   8.165   0.279  1.00 20.00    -0.021 C 
HETATM   11  C2  UNL     1     -31.972   7.432  -0.545  1.00 20.00     0.009 C 
HETATM   12  C3  UNL     1     -33.217   9.585  -0.265  1.00 20.00     0.009 C 
ENDBRANCH   9  10
ENDBRANCH   7   9
ENDBRANCH   1   7
TORSDOF 6
