REMARK  3 active torsions:
REMARK  status: ('A' for Active; 'I' for Inactive)
REMARK    1  A    between atoms: C3_3  and  C7_7 
REMARK    2  A    between atoms: C3_3  and  C8_8 
REMARK    3  A    between atoms: C6_6  and  C8_8 
ROOT
HETATM    1  C1  UNL     1     -32.073   8.189   0.364  1.00 20.00     0.012 C 
HETATM    2  C2  UNL     1     -32.372   7.919   1.495  1.00 20.00    -0.110 C 
HETATM    3  C7  UNL     1     -32.736   7.597   2.879  1.00 20.00     0.171 C 
ENDROOT
BRANCH   3   4
HETATM    4  C3  UNL     1     -33.123   6.140   3.057  1.00 20.00     0.138 C 
HETATM    5  O9  UNL     1     -32.632   5.238   2.378  1.00 20.00    -0.297 OA
BRANCH   4   6
HETATM    6  C8  UNL     1     -34.160   5.865   4.131  1.00 20.00     0.083 C 
BRANCH   6   7
HETATM    7  C6  UNL     1     -33.726   6.264   5.506  1.00 20.00    -0.007 A 
HETATM    8  C4  UNL     1     -34.002   7.651   6.016  1.00 20.00     0.005 A 
HETATM    9  C5  UNL     1     -34.746   6.478   6.590  1.00 20.00     0.005 A 
ENDBRANCH   6   7
ENDBRANCH   4   6
ENDBRANCH   3   4
TORSDOF 3
