REMARK  2 active torsions:
REMARK  status: ('A' for Active; 'I' for Inactive)
REMARK    1  A    between atoms: C6_6  and  C8_8 
REMARK    2  A    between atoms: C7_7  and  C9_9 
ROOT
HETATM    1  C4  UNL     1     -33.867   5.937   6.653  1.00 20.00     0.034 C 
HETATM    2  C5  UNL     1     -34.292   4.646   5.987  1.00 20.00     0.168 C 
HETATM    3  C7  UNL     1     -34.418   6.971   5.693  1.00 20.00     0.031 C 
HETATM    4  C8  UNL     1     -34.193   6.304   4.337  1.00 20.00     0.130 C 
HETATM    5  O10 UNL     1     -34.308   4.887   4.573  1.00 20.00    -0.385 OA
ENDROOT
BRANCH   4   6
HETATM    6  C6  UNL     1     -32.818   6.562   3.731  1.00 20.00     0.015 C 
HETATM    7  C2  UNL     1     -32.653   7.869   2.912  1.00 20.00     0.007 C 
HETATM    8  C1  UNL     1     -31.735   7.070   1.963  1.00 20.00     0.001 C 
HETATM    9  C3  UNL     1     -32.483   5.801   2.422  1.00 20.00     0.007 C 
ENDBRANCH   4   6
BRANCH   3  10
HETATM   10  C9  UNL     1     -33.840   8.362   5.882  1.00 20.00     0.121 C 
HETATM   11 CL11 UNL     1     -32.102   8.268   6.229  1.00 20.00    -0.130 Cl
ENDBRANCH   3  10
TORSDOF 2
