REMARK  2 active torsions:
REMARK  status: ('A' for Active; 'I' for Inactive)
REMARK    1  A    between atoms: C1_1  and  C3_3 
REMARK       I    between atoms: C3_3  and  N7_7 
REMARK    2  A    between atoms: N7_7  and  O9_9 
ROOT
HETATM    1  C3  UNL     1     -33.082   5.674   3.273  1.00 20.00     0.266 C 
HETATM    2  C5  UNL     1     -34.932   5.011   4.812  1.00 20.00     0.189 C 
HETATM    3  N7  UNL     1     -34.017   5.980   4.234  1.00 20.00    -0.228 N 
HETATM    4  O8  UNL     1     -32.933   4.542   2.811  1.00 20.00    -0.266 OA
ENDROOT
BRANCH   1   5
HETATM    5  C1  UNL     1     -32.224   6.803   2.803  1.00 20.00     0.072 C 
HETATM    6  C2  UNL     1     -32.780   7.882   2.233  1.00 20.00    -0.025 C 
HETATM    7  C4  UNL     1     -31.990   9.050   1.740  1.00 20.00     0.036 C 
ENDBRANCH   1   5
BRANCH   3   8
HETATM    8  O9  UNL     1     -34.198   7.268   4.771  1.00 20.00    -0.281 OA
HETATM    9  C6  UNL     1     -33.357   7.416   5.912  1.00 20.00     0.238 C 
ENDBRANCH   3   8
TORSDOF 2
