REMARK  4 active torsions:
REMARK  status: ('A' for Active; 'I' for Inactive)
REMARK    1  A    between atoms: C3_3  and  C7_7 
REMARK    2  A    between atoms: C6_6  and  C7_7 
REMARK    3  A    between atoms: C6_6  and  O9_9 
REMARK    4  A    between atoms: C7_7  and  C8_8 
ROOT
HETATM    1  C7  UNL     1     -32.979   6.871   4.303  1.00 20.00     0.032 C 
ENDROOT
BRANCH   1   2
HETATM    2  C3  UNL     1     -33.938   7.528   5.274  1.00 20.00    -0.007 A 
HETATM    3  C1  UNL     1     -34.324   6.829   6.548  1.00 20.00     0.005 A 
HETATM    4  C2  UNL     1     -33.440   8.044   6.596  1.00 20.00     0.005 A 
ENDBRANCH   1   2
BRANCH   1   5
HETATM    5  C6  UNL     1     -32.289   7.932   3.429  1.00 20.00     0.173 C 
BRANCH   5   6
HETATM    6  O9  UNL     1     -33.168   8.330   2.381  1.00 20.00    -0.396 OA
HETATM    7  C5  UNL     1     -32.554   9.276   1.520  1.00 20.00     0.201 C 
ENDBRANCH   5   6
ENDBRANCH   1   5
BRANCH   1   8
HETATM    8  C8  UNL     1     -33.640   5.776   3.429  1.00 20.00     0.084 C 
HETATM    9  C4  UNL     1     -32.680   5.123   2.439  1.00 20.00     0.027 C 
HETATM   10 CL10 UNL     1     -34.426   4.501   4.413  1.00 20.00    -0.125 Cl
ENDBRANCH   1   8
TORSDOF 4
