REMARK  3 active torsions:
REMARK  status: ('A' for Active; 'I' for Inactive)
REMARK    1  A    between atoms: C1_1  and  C7_7 
REMARK    2  A    between atoms: C2_2  and  C3_3 
REMARK    3  A    between atoms: C3_3  and  C9_9 
ROOT
HETATM    1  C1  UNL     1     -32.637   5.943   2.875  1.00 20.00    -0.012 C 
HETATM    2  C3  UNL     1     -33.412   5.863   3.970  1.00 20.00    -0.024 C 
ENDROOT
BRANCH   1   3
HETATM    3  C7  UNL     1     -32.045   7.161   2.295  1.00 20.00     0.009 C 
HETATM    4  C5  UNL     1     -32.065   7.248   0.748  1.00 20.00     0.008 C 
HETATM    5  C4  UNL     1     -32.351   8.756   0.911  1.00 20.00     0.001 C 
HETATM    6  C6  UNL     1     -32.957   8.414   2.288  1.00 20.00     0.008 C 
ENDBRANCH   1   3
BRANCH   2   7
HETATM    7  C2  UNL     1     -33.894   4.505   4.341  1.00 20.00     0.265 C 
HETATM    8  O10 UNL     1     -34.958   4.305   4.914  1.00 20.00    -0.302 OA
ENDBRANCH   2   7
BRANCH   2   9
HETATM    9  C9  UNL     1     -33.852   7.029   4.813  1.00 20.00     0.037 C 
HETATM   10  C8  UNL     1     -32.870   7.326   5.937  1.00 20.00     0.010 C 
ENDBRANCH   2   9
TORSDOF 3
