REMARK  1 active torsions:
REMARK  status: ('A' for Active; 'I' for Inactive)
REMARK    1  A    between atoms: C3_3  and  C7_7 
ROOT
HETATM    1  C1  UNL     1     -32.373   7.859   1.674  1.00 20.00     0.087 C 
HETATM    2  C2  UNL     1     -32.599   7.557   3.044  1.00 20.00     0.090 C 
HETATM    3  C3  UNL     1     -33.168   6.406   3.425  1.00 20.00    -0.011 C 
HETATM    4  N8  UNL     1     -32.187   8.109   0.556  1.00 20.00    -0.192 NA
ENDROOT
BRANCH   3   5
HETATM    5  C7  UNL     1     -33.423   6.048   4.831  1.00 20.00     0.009 C 
HETATM    6  C5  UNL     1     -33.936   7.197   5.735  1.00 20.00     0.008 C 
HETATM    7  C4  UNL     1     -34.839   6.153   6.424  1.00 20.00     0.001 C 
HETATM    8  C6  UNL     1     -34.776   5.345   5.110  1.00 20.00     0.008 C 
ENDBRANCH   3   5
TORSDOF 1
