REMARK  3 active torsions:
REMARK  status: ('A' for Active; 'I' for Inactive)
REMARK    1  A    between atoms: C3_3  and  C8_8 
REMARK    2  A    between atoms: C8_8  and  C9_9 
REMARK    3  A    between atoms: C8_8  and  O10_10 
ROOT
HETATM    1  C8  UNL     1     -34.362   5.953   4.458  1.00 20.00     0.133 C 
ENDROOT
BRANCH   1   2
HETATM    2  C3  UNL     1     -33.433   5.374   3.393  1.00 20.00    -0.017 A 
HETATM    3  C1  UNL     1     -32.512   6.325   2.664  1.00 20.00     0.012 A 
HETATM    4  C2  UNL     1     -33.696   5.736   1.950  1.00 20.00     0.012 A 
HETATM    5  C4  UNL     1     -32.924   3.990   3.692  1.00 20.00     0.018 C 
ENDBRANCH   1   2
BRANCH   1   6
HETATM    6  C9  UNL     1     -33.658   6.638   5.667  1.00 20.00    -0.025 C 
HETATM    7  C5  UNL     1     -34.700   7.155   6.676  1.00 20.00     0.017 C 
HETATM    8  C6  UNL     1     -32.764   5.603   6.384  1.00 20.00     0.017 C 
HETATM    9  C7  UNL     1     -32.765   7.815   5.232  1.00 20.00     0.017 C 
ENDBRANCH   1   6
BRANCH   1  10
HETATM   10  O10 UNL     1     -35.226   4.905   4.905  1.00 20.00    -0.394 OA
HETATM   11  H28 UNL     1     -34.652   4.215   5.267  1.00 20.00     0.210 HD
ENDBRANCH   1  10
TORSDOF 3
