REMARK  3 active torsions:
REMARK  status: ('A' for Active; 'I' for Inactive)
REMARK    1  A    between atoms: C1_1  and  C7_7 
REMARK    2  A    between atoms: C2_2  and  C3_3 
REMARK    3  A    between atoms: C3_3  and  C10_10 
ROOT
HETATM    1  C1  UNL     1     -32.605   7.616   4.363  1.00 20.00    -0.012 C 
HETATM    2  C3  UNL     1     -33.465   6.804   5.004  1.00 20.00    -0.020 C 
ENDROOT
BRANCH   2   3
HETATM    3  C2  UNL     1     -33.815   7.260   6.381  1.00 20.00     0.265 C 
HETATM    4  O11 UNL     1     -34.581   6.660   7.126  1.00 20.00    -0.302 OA
ENDBRANCH   2   3
BRANCH   2   5
HETATM    5  C10 UNL     1     -34.069   5.527   4.452  1.00 20.00     0.013 C 
HETATM    6  C8  UNL     1     -35.593   5.615   4.326  1.00 20.00     0.015 C 
HETATM    7  C9  UNL     1     -33.652   4.293   5.256  1.00 20.00     0.015 C 
ENDBRANCH   2   5
BRANCH   1   8
HETATM    8  C7  UNL     1     -32.133   7.345   2.994  1.00 20.00     0.009 C 
HETATM    9  C5  UNL     1     -33.188   7.519   1.872  1.00 20.00     0.008 C 
HETATM   10  C4  UNL     1     -32.055   8.098   1.000  1.00 20.00     0.001 C 
HETATM   11  C6  UNL     1     -31.350   8.496   2.313  1.00 20.00     0.008 C 
ENDBRANCH   1   8
TORSDOF 3
