REMARK  2 active torsions:
REMARK  status: ('A' for Active; 'I' for Inactive)
REMARK    1  A    between atoms: C7_7  and  C9_9 
REMARK    2  A    between atoms: C9_9  and  O11_11 
ROOT
HETATM    1  C1  UNL     1     -35.490   6.009   6.567  1.00 20.00     0.010 A 
HETATM    2  C2  UNL     1     -33.199   7.175   6.004  1.00 20.00     0.012 C 
HETATM    3  C3  UNL     1     -33.988   5.438   4.483  1.00 20.00     0.012 C 
HETATM    4  C5  UNL     1     -34.012   6.189   6.791  1.00 20.00    -0.010 A 
HETATM    5  C6  UNL     1     -34.493   5.128   5.862  1.00 20.00    -0.010 A 
HETATM    6  C7  UNL     1     -33.573   6.923   4.529  1.00 20.00     0.021 C 
ENDROOT
BRANCH   6   7
HETATM    7  C9  UNL     1     -32.463   7.249   3.581  1.00 20.00     0.065 A 
HETATM    8  C4  UNL     1     -31.899   6.167   2.708  1.00 20.00     0.045 A 
HETATM    9  C8  UNL     1     -32.735   7.265   2.104  1.00 20.00     0.019 A 
HETATM   10  C10 UNL     1     -32.104   8.282   1.216  1.00 20.00     0.013 C 
BRANCH   7  11
HETATM   11  O11 UNL     1     -31.532   8.199   4.109  1.00 20.00    -0.389 OA
HETATM   12  H27 UNL     1     -32.052   8.819   4.642  1.00 20.00     0.210 HD
ENDBRANCH   7  11
ENDBRANCH   6   7
TORSDOF 2
