REMARK  2 active torsions:
REMARK  status: ('A' for Active; 'I' for Inactive)
REMARK    1  A    between atoms: C1_1  and  C5_5 
REMARK    2  A    between atoms: C1_1  and  C8_8 
ROOT
HETATM    1  C2  UNL     1     -34.560   5.256   5.379  1.00 20.00     0.017 C 
HETATM    2  C3  UNL     1     -32.958   7.085   5.132  1.00 20.00     0.017 C 
HETATM    3  C4  UNL     1     -34.669   7.220   7.124  1.00 20.00     0.010 A 
HETATM    4  C5  UNL     1     -34.061   6.318   4.384  1.00 20.00     0.057 C 
HETATM    5  C6  UNL     1     -34.267   5.821   6.738  1.00 20.00    -0.009 A 
HETATM    6  C7  UNL     1     -33.291   6.936   6.588  1.00 20.00    -0.009 A 
ENDROOT
BRANCH   4   7
HETATM    7  C1  UNL     1     -33.554   5.702   3.119  1.00 20.00     0.144 C 
HETATM    8  O9  UNL     1     -33.068   4.572   3.124  1.00 20.00    -0.296 OA
BRANCH   7   9
HETATM    9  C8  UNL     1     -33.680   6.555   1.877  1.00 20.00     0.193 C 
HETATM   10 CL10 UNL     1     -32.241   7.562   1.661  1.00 20.00    -0.123 Cl
ENDBRANCH   7   9
ENDBRANCH   4   7
TORSDOF 2
