REMARK  6 active torsions:
REMARK  status: ('A' for Active; 'I' for Inactive)
REMARK    1  A    between atoms: C1_1  and  C6_6 
REMARK    2  A    between atoms: C1_1  and  C7_7 
REMARK    3  A    between atoms: C6_6  and  C8_8 
REMARK    4  A    between atoms: C7_7  and  C10_10 
REMARK    5  A    between atoms: C8_8  and  C9_9 
REMARK    6  A    between atoms: C9_9  and  C11_11 
ROOT
HETATM    1  C1  UNL     1     -34.274   5.439   3.942  1.00 20.00     0.127 C 
HETATM    2  O12 UNL     1     -33.917   4.297   4.228  1.00 20.00    -0.298 OA
ENDROOT
BRANCH   1   3
HETATM    3  C6  UNL     1     -33.918   6.091   2.615  1.00 20.00     0.078 C 
BRANCH   3   4
HETATM    4  C8  UNL     1     -32.412   6.282   2.440  1.00 20.00     0.008 C 
BRANCH   4   5
HETATM    5  C9  UNL     1     -32.092   6.972   1.111  1.00 20.00     0.004 C 
BRANCH   5   6
HETATM    6  C11 UNL     1     -32.749   8.358   0.966  1.00 20.00    -0.023 C 
HETATM    7  C4  UNL     1     -32.264   9.282   2.086  1.00 20.00     0.009 C 
HETATM    8  C5  UNL     1     -32.463   9.000  -0.392  1.00 20.00     0.009 C 
ENDBRANCH   5   6
ENDBRANCH   4   5
ENDBRANCH   3   4
ENDBRANCH   1   3
BRANCH   1   9
HETATM    9  C7  UNL     1     -35.141   6.278   4.872  1.00 20.00     0.082 C 
BRANCH   9  10
HETATM   10  C10 UNL     1     -34.514   6.523   6.253  1.00 20.00    -0.016 C 
HETATM   11  C2  UNL     1     -33.182   7.260   6.100  1.00 20.00     0.010 C 
HETATM   12  C3  UNL     1     -34.293   5.209   7.007  1.00 20.00     0.010 C 
ENDBRANCH   9  10
ENDBRANCH   1   9
TORSDOF 6
