REMARK  3 active torsions:
REMARK  status: ('A' for Active; 'I' for Inactive)
REMARK    1  A    between atoms: C5_5  and  C8_8 
REMARK    2  A    between atoms: C6_6  and  C8_8 
REMARK    3  A    between atoms: C8_8  and  O9_9 
ROOT
HETATM    1  C8  UNL     1     -32.759   6.658   5.093  1.00 20.00     0.130 C 
ENDROOT
BRANCH   1   2
HETATM    2  C5  UNL     1     -33.094   6.846   3.615  1.00 20.00     0.015 A 
HETATM    3  C1  UNL     1     -31.994   7.035   2.607  1.00 20.00     0.007 A 
HETATM    4  C2  UNL     1     -32.786   5.757   2.625  1.00 20.00     0.007 A 
ENDBRANCH   1   2
BRANCH   1   5
HETATM    5  C6  UNL     1     -33.906   6.077   5.873  1.00 20.00    -0.018 A 
HETATM    6  C3  UNL     1     -33.978   4.574   6.014  1.00 20.00     0.012 A 
HETATM    7  C4  UNL     1     -34.949   5.287   5.117  1.00 20.00     0.012 A 
HETATM    8  C7  UNL     1     -34.362   6.916   7.035  1.00 20.00     0.018 C 
ENDBRANCH   1   5
BRANCH   1   9
HETATM    9  O9  UNL     1     -32.394   7.927   5.642  1.00 20.00    -0.394 OA
HETATM   10  H23 UNL     1     -32.189   7.770   6.576  1.00 20.00     0.210 HD
ENDBRANCH   1   9
TORSDOF 3
