REMARK  3 active torsions:
REMARK  status: ('A' for Active; 'I' for Inactive)
REMARK    1  A    between atoms: C1_1  and  C6_6 
REMARK    2  A    between atoms: C2_2  and  C8_8 
REMARK    3  A    between atoms: C2_2  and  C9_9 
ROOT
HETATM    1  C1  UNL     1     -33.326   7.717   4.383  1.00 20.00    -0.018 C 
HETATM    2  C2  UNL     1     -32.680   7.620   3.205  1.00 20.00    -0.070 C 
ENDROOT
BRANCH   1   3
HETATM    3  C6  UNL     1     -33.715   6.539   5.178  1.00 20.00     0.008 C 
HETATM    4  C4  UNL     1     -34.009   6.806   6.676  1.00 20.00     0.008 C 
HETATM    5  C3  UNL     1     -35.146   5.770   6.562  1.00 20.00     0.001 C 
HETATM    6  C5  UNL     1     -35.199   6.107   5.057  1.00 20.00     0.008 C 
ENDBRANCH   1   3
BRANCH   2   7
HETATM    7  C8  UNL     1     -32.329   6.251   2.656  1.00 20.00     0.030 C 
HETATM    8  C7  UNL     1     -33.427   5.677   1.771  1.00 20.00     0.010 C 
ENDBRANCH   2   7
BRANCH   2   9
HETATM    9  C9  UNL     1     -32.263   8.803   2.371  1.00 20.00     0.148 C 
HETATM   10 CL10 UNL     1     -32.255   8.375   0.644  1.00 20.00    -0.126 Cl
ENDBRANCH   2   9
TORSDOF 3
