REMARK  3 active torsions:
REMARK  status: ('A' for Active; 'I' for Inactive)
REMARK    1  A    between atoms: C1_1  and  C6_6 
REMARK    2  A    between atoms: C1_1  and  O8_8 
REMARK    3  A    between atoms: C4_4  and  C6_6 
ROOT
HETATM    1  C1  UNL     1     -33.417   6.734   5.390  1.00 20.00     0.132 C 
HETATM    2  N7  UNL     1     -32.728   6.744   6.482  1.00 20.00    -0.282 NA
HETATM    3  H19 UNL     1     -31.951   7.409   6.406  1.00 20.00     0.189 HD
ENDROOT
BRANCH   1   4
HETATM    4  C6  UNL     1     -33.088   7.581   4.195  1.00 20.00     0.090 C 
BRANCH   4   5
HETATM    5  C4  UNL     1     -32.196   6.870   3.229  1.00 20.00    -0.007 A 
HETATM    6  C2  UNL     1     -32.786   6.035   2.126  1.00 20.00     0.005 A 
HETATM    7  C3  UNL     1     -32.103   7.334   1.802  1.00 20.00     0.005 A 
ENDBRANCH   4   5
ENDBRANCH   1   4
BRANCH   1   8
HETATM    8  O8  UNL     1     -34.501   5.944   5.176  1.00 20.00    -0.343 OA
HETATM    9  C5  UNL     1     -34.911   5.089   6.251  1.00 20.00     0.211 C 
ENDBRANCH   1   8
TORSDOF 3
