REMARK  4 active torsions:
REMARK  status: ('A' for Active; 'I' for Inactive)
REMARK    1  A    between atoms: C5_5  and  C8_8 
REMARK    2  A    between atoms: C6_6  and  C8_8 
REMARK    3  A    between atoms: C7_7  and  C8_8 
REMARK    4  A    between atoms: C8_8  and  N9_9 
ROOT
HETATM    1  C8  UNL     1     -33.474   6.634   4.363  1.00 20.00     0.217 C 
ENDROOT
BRANCH   1   2
HETATM    2  C5  UNL     1     -34.832   7.002   3.694  1.00 20.00     0.043 C 
HETATM    3  C1  UNL     1     -36.048   6.206   4.159  1.00 20.00     0.008 C 
ENDBRANCH   1   2
BRANCH   1   4
HETATM    4  C6  UNL     1     -32.277   7.497   3.828  1.00 20.00     0.021 C 
HETATM    5  C2  UNL     1     -31.537   8.290   4.915  1.00 20.00     0.012 C 
HETATM    6  C3  UNL     1     -32.674   8.474   2.707  1.00 20.00     0.012 C 
ENDBRANCH   1   4
BRANCH   1   7
HETATM    7  C7  UNL     1     -33.643   6.735   5.892  1.00 20.00     0.391 C 
HETATM    8  F10 UNL     1     -34.015   7.996   6.240  1.00 20.00    -0.212 F 
HETATM    9  F11 UNL     1     -34.640   5.921   6.319  1.00 20.00    -0.212 F 
ENDBRANCH   1   7
BRANCH   1  10
HETATM   10  N9  UNL     1     -33.183   5.214   4.083  1.00 20.00     0.094 N 
HETATM   11  C4  UNL     1     -33.095   4.992   2.653  1.00 20.00     0.307 C 
HETATM   12  H28 UNL     1     -33.930   4.654   4.477  1.00 20.00     0.316 HD
ENDBRANCH   1  10
TORSDOF 4
