REMARK  2 active torsions:
REMARK  status: ('A' for Active; 'I' for Inactive)
REMARK    1  A    between atoms: C3_3  and  C7_7 
REMARK    2  A    between atoms: C3_3  and  C8_8 
ROOT
HETATM    1  C1  UNL     1     -32.460   5.320   2.809  1.00 20.00     0.286 C 
HETATM    2  C2  UNL     1     -31.850   6.712   2.959  1.00 20.00     0.074 C 
HETATM    3  C3  UNL     1     -34.115   6.213   4.260  1.00 20.00     0.205 C 
HETATM    4  C4  UNL     1     -32.090   7.612   1.753  1.00 20.00     0.023 C 
HETATM    5  N9  UNL     1     -33.909   5.402   3.045  1.00 20.00     0.104 N 
HETATM    6  S10 UNL     1     -32.708   7.376   4.413  1.00 20.00    -0.122 SA
HETATM    7  H27 UNL     1     -34.377   5.815   2.245  1.00 20.00     0.318 HD
ENDROOT
BRANCH   3   8
HETATM    8  C7  UNL     1     -35.418   7.008   4.146  1.00 20.00     0.048 C 
HETATM    9  C5  UNL     1     -36.599   6.107   4.015  1.00 20.00     0.009 C 
ENDBRANCH   3   8
BRANCH   3  10
HETATM   10  C8  UNL     1     -34.155   5.304   5.492  1.00 20.00     0.048 C 
HETATM   11  C6  UNL     1     -34.328   6.089   6.750  1.00 20.00     0.009 C 
ENDBRANCH   3  10
TORSDOF 2
