REMARK  3 active torsions:
REMARK  status: ('A' for Active; 'I' for Inactive)
REMARK    1  A    between atoms: C3_3  and  N7_7 
REMARK    2  A    between atoms: C4_4  and  C5_5 
REMARK    3  A    between atoms: C4_4  and  N7_7 
ROOT
HETATM    1  C1  UNL     1     -32.525   6.928   2.774  1.00 20.00     0.089 C 
HETATM    2  C3  UNL     1     -33.043   6.518   4.078  1.00 20.00     0.395 C 
HETATM    3  N6  UNL     1     -32.112   7.255   1.741  1.00 20.00    -0.195 NA
ENDROOT
BRANCH   2   4
HETATM    4  N7  UNL     1     -34.257   5.717   3.929  1.00 20.00     0.099 N 
HETATM    5  C2  UNL     1     -35.414   6.580   3.696  1.00 20.00     0.311 C 
BRANCH   4   6
HETATM    6  C4  UNL     1     -34.470   4.885   5.113  1.00 20.00     0.304 C 
BRANCH   6   7
HETATM    7  C5  UNL     1     -34.648   5.728   6.358  1.00 20.00     0.252 C 
HETATM    8  F8  UNL     1     -33.525   6.470   6.555  1.00 20.00    -0.254 F 
ENDBRANCH   6   7
ENDBRANCH   4   6
ENDBRANCH   2   4
TORSDOF 3
