REMARK  1 active torsions:
REMARK  status: ('A' for Active; 'I' for Inactive)
REMARK    1  A    between atoms: C3_3  and  C8_8 
ROOT
HETATM    1  C1  UNL     1     -33.943   5.750   6.426  1.00 20.00     0.111 C 
HETATM    2  C2  UNL     1     -34.401   7.096   5.873  1.00 20.00     0.227 C 
HETATM    3  C3  UNL     1     -33.755   6.093   3.811  1.00 20.00     0.205 C 
HETATM    4  C4  UNL     1     -34.125   8.227   6.858  1.00 20.00     0.043 C 
HETATM    5  C5  UNL     1     -35.000   6.123   2.918  1.00 20.00     0.062 C 
HETATM    6  N9  UNL     1     -33.676   7.330   4.610  1.00 20.00     0.108 N 
HETATM    7  S10 UNL     1     -33.873   4.684   4.971  1.00 20.00    -0.126 SA
HETATM    8  H27 UNL     1     -34.078   8.120   4.109  1.00 20.00     0.318 HD
ENDROOT
BRANCH   3   9
HETATM    9  C8  UNL     1     -32.494   5.941   2.956  1.00 20.00     0.026 C 
HETATM   10  C6  UNL     1     -32.530   4.628   2.178  1.00 20.00     0.013 C 
HETATM   11  C7  UNL     1     -32.346   7.127   2.007  1.00 20.00     0.013 C 
ENDBRANCH   3   9
TORSDOF 1
