REMARK  1 active torsions:
REMARK  status: ('A' for Active; 'I' for Inactive)
REMARK    1  A    between atoms: C4_4  and  C7_7 
ROOT
HETATM    1  C1  UNL     1     -33.967   5.820   6.905  1.00 20.00     0.040 C 
HETATM    2  C2  UNL     1     -34.731   5.112   5.787  1.00 20.00     0.272 C 
HETATM    3  C3  UNL     1     -33.615   7.264   6.574  1.00 20.00     0.078 C 
HETATM    4  C4  UNL     1     -33.636   6.339   3.945  1.00 20.00     0.201 C 
HETATM    5  C5  UNL     1     -34.883   7.119   3.501  1.00 20.00     0.061 C 
HETATM    6  N8  UNL     1     -33.973   5.037   4.540  1.00 20.00     0.102 N 
HETATM    7  S9  UNL     1     -32.610   7.375   5.066  1.00 20.00    -0.128 SA
HETATM    8  H24 UNL     1     -33.116   4.509   4.707  1.00 20.00     0.317 HD
ENDROOT
BRANCH   4   9
HETATM    9  C7  UNL     1     -32.775   6.054   2.702  1.00 20.00     0.048 C 
HETATM   10  C6  UNL     1     -32.349   7.316   2.035  1.00 20.00     0.009 C 
ENDBRANCH   4   9
TORSDOF 1
