REMARK  1 active torsions:
REMARK  status: ('A' for Active; 'I' for Inactive)
REMARK    1  A    between atoms: C5_5  and  C6_6 
ROOT
HETATM    1  C3  UNL     1     -33.150   5.286   2.284  1.00 20.00     0.282 C 
HETATM    2  C4  UNL     1     -32.061   6.334   2.436  1.00 20.00     0.106 C 
HETATM    3  C6  UNL     1     -34.043   6.394   4.185  1.00 20.00     0.208 C 
HETATM    4  C8  UNL     1     -35.445   6.860   3.783  1.00 20.00     0.062 C 
HETATM    5  N9  UNL     1     -33.763   5.067   3.602  1.00 20.00     0.104 N 
HETATM    6  S10 UNL     1     -32.800   7.566   3.529  1.00 20.00    -0.126 SA
HETATM    7  H25 UNL     1     -34.641   4.577   3.458  1.00 20.00     0.318 HD
ENDROOT
BRANCH   3   8
HETATM    8  C5  UNL     1     -33.923   6.330   5.710  1.00 20.00     0.001 A 
HETATM    9  C1  UNL     1     -34.284   5.032   6.395  1.00 20.00     0.013 A 
HETATM   10  C2  UNL     1     -32.845   5.451   6.300  1.00 20.00     0.013 A 
HETATM   11  C7  UNL     1     -34.251   7.615   6.418  1.00 20.00     0.019 C 
ENDBRANCH   3   8
TORSDOF 1
