REMARK  2 active torsions:
REMARK  status: ('A' for Active; 'I' for Inactive)
REMARK    1  A    between atoms: C5_5  and  C8_8 
REMARK    2  A    between atoms: C5_5  and  O9_9 
ROOT
HETATM    1  C1  UNL     1     -33.918   7.393   6.465  1.00 20.00     0.004 C 
HETATM    2  C2  UNL     1     -35.007   6.401   6.052  1.00 20.00     0.012 C 
HETATM    3  C3  UNL     1     -32.905   7.439   5.316  1.00 20.00     0.044 C 
HETATM    4  C4  UNL     1     -34.396   5.566   4.908  1.00 20.00    -0.011 C 
HETATM    5  C5  UNL     1     -33.543   6.637   4.173  1.00 20.00     0.123 C 
HETATM    6  C6  UNL     1     -35.503   4.960   4.035  1.00 20.00     0.018 C 
HETATM    7  C7  UNL     1     -33.554   4.415   5.495  1.00 20.00     0.018 C 
ENDROOT
BRANCH   5   8
HETATM    8  C8  UNL     1     -32.510   6.099   3.189  1.00 20.00     0.388 C 
HETATM    9  F10 UNL     1     -31.860   7.141   2.627  1.00 20.00    -0.211 F 
HETATM   10  F11 UNL     1     -33.151   5.440   2.201  1.00 20.00    -0.211 F 
ENDBRANCH   5   8
BRANCH   5  11
HETATM   11  O9  UNL     1     -34.412   7.520   3.451  1.00 20.00    -0.383 OA
HETATM   12  H25 UNL     1     -35.071   7.828   4.088  1.00 20.00     0.210 HD
ENDBRANCH   5  11
TORSDOF 2
