REMARK  0 active torsions:
REMARK  status: ('A' for Active; 'I' for Inactive)
ROOT
HETATM    1  C1  UNL     1     -33.925   4.845   6.770  1.00 20.00     0.021 C 
HETATM    2  C2  UNL     1     -32.845   5.911   6.626  1.00 20.00     0.010 C 
HETATM    3  C3  UNL     1     -34.758   6.400   5.154  1.00 20.00     0.029 C 
HETATM    4  C4  UNL     1     -34.678   4.903   5.449  1.00 20.00     0.083 C 
HETATM    5  C5  UNL     1     -33.504   7.042   5.803  1.00 20.00    -0.046 C 
HETATM    6  C6  UNL     1     -32.536   7.574   4.739  1.00 20.00     0.015 C 
HETATM    7  C7  UNL     1     -33.918   8.203   6.721  1.00 20.00     0.015 C 
HETATM    8 CL8  UNL     1     -33.780   4.048   4.162  1.00 20.00    -0.125 Cl
ENDROOT
TORSDOF 0
