REMARK  1 active torsions:
REMARK  status: ('A' for Active; 'I' for Inactive)
REMARK    1  A    between atoms: C5_5  and  O9_9 
ROOT
HETATM    1  C1  UNL     1     -35.061   6.123   4.054  1.00 20.00     0.012 C 
HETATM    2  C2  UNL     1     -34.638   7.453   4.660  1.00 20.00     0.038 C 
HETATM    3  C3  UNL     1     -32.722   6.006   4.813  1.00 20.00     0.046 C 
HETATM    4  C4  UNL     1     -33.741   5.352   3.843  1.00 20.00    -0.045 C 
HETATM    5  C5  UNL     1     -33.493   7.078   5.597  1.00 20.00     0.055 C 
HETATM    6  C6  UNL     1     -33.259   5.506   2.391  1.00 20.00     0.015 C 
HETATM    7  C7  UNL     1     -33.927   3.862   4.149  1.00 20.00     0.015 C 
HETATM    8  C8  UNL     1     -33.979   6.560   6.951  1.00 20.00     0.045 C 
ENDROOT
BRANCH   5   9
HETATM    9  O9  UNL     1     -32.654   8.204   5.823  1.00 20.00    -0.390 OA
HETATM   10  H25 UNL     1     -31.951   7.906   6.420  1.00 20.00     0.210 HD
ENDBRANCH   5   9
TORSDOF 1
