REMARK  1 active torsions:
REMARK  status: ('A' for Active; 'I' for Inactive)
REMARK    1  A    between atoms: C4_4  and  C8_8 
ROOT
HETATM    1  C1  UNL     1     -33.775   5.578   3.190  1.00 20.00     0.006 C 
HETATM    2  C2  UNL     1     -34.739   5.977   4.298  1.00 20.00     0.009 C 
HETATM    3  C3  UNL     1     -32.428   6.407   5.011  1.00 20.00     0.014 C 
HETATM    4  C4  UNL     1     -32.524   6.402   3.479  1.00 20.00     0.000 C 
HETATM    5  C5  UNL     1     -33.854   6.126   5.550  1.00 20.00    -0.047 C 
HETATM    6  C6  UNL     1     -34.352   7.275   6.434  1.00 20.00     0.015 C 
HETATM    7  C7  UNL     1     -33.864   4.826   6.371  1.00 20.00     0.015 C 
ENDROOT
BRANCH   4   8
HETATM    8  C8  UNL     1     -32.617   7.818   2.912  1.00 20.00     0.119 C 
HETATM    9 CL9  UNL     1     -32.243   7.814   1.177  1.00 20.00    -0.130 Cl
ENDBRANCH   4   8
TORSDOF 1
