REMARK  2 active torsions:
REMARK  status: ('A' for Active; 'I' for Inactive)
REMARK    1  A    between atoms: C6_6  and  C7_7 
REMARK    2  A    between atoms: C6_6  and  N9_9 
ROOT
HETATM    1  C1  UNL     1     -32.709   7.395   4.358  1.00 20.00     0.095 C 
HETATM    2  C2  UNL     1     -34.769   5.573   6.550  1.00 20.00     0.033 C 
HETATM    3  C3  UNL     1     -34.506   6.973   6.014  1.00 20.00     0.053 C 
HETATM    4  C4  UNL     1     -34.958   4.741   5.298  1.00 20.00     0.274 C 
HETATM    5  C5  UNL     1     -34.020   6.770   4.571  1.00 20.00     0.328 C 
HETATM    6  N8  UNL     1     -31.673   7.889   4.188  1.00 20.00    -0.195 NA
HETATM    7  N9  UNL     1     -33.947   5.310   4.406  1.00 20.00     0.108 N 
ENDROOT
BRANCH   7   8
HETATM    8  C6  UNL     1     -34.134   4.879   3.026  1.00 20.00     0.305 C 
BRANCH   8   9
HETATM    9  C7  UNL     1     -32.875   5.076   2.208  1.00 20.00     0.252 C 
HETATM   10  F10 UNL     1     -32.554   6.398   2.202  1.00 20.00    -0.254 F 
ENDBRANCH   8   9
ENDBRANCH   7   8
TORSDOF 2
