REMARK  3 active torsions:
REMARK  status: ('A' for Active; 'I' for Inactive)
REMARK    1  A    between atoms: C2_2  and  C8_8 
REMARK    2  A    between atoms: C6_6  and  N9_9 
REMARK    3  A    between atoms: C8_8  and  N9_9 
ROOT
HETATM    1  N9  UNL     1     -32.275   7.071   5.021  1.00 20.00     0.094 N 
HETATM    2  H25 UNL     1     -31.604   7.090   5.792  1.00 20.00     0.316 HD
ENDROOT
BRANCH   1   3
HETATM    3  C6  UNL     1     -33.575   7.545   5.492  1.00 20.00     0.246 C 
HETATM    4  C3  UNL     1     -33.875   7.016   6.878  1.00 20.00     0.064 C 
HETATM    5  C4  UNL     1     -34.391   5.619   6.600  1.00 20.00     0.170 C 
HETATM    6  O10 UNL     1     -35.022   5.662   5.312  1.00 20.00    -0.389 OA
HETATM    7  C5  UNL     1     -34.691   6.910   4.680  1.00 20.00     0.203 C 
ENDBRANCH   1   3
BRANCH   1   8
HETATM    8  C8  UNL     1     -31.771   7.906   3.936  1.00 20.00     0.303 C 
BRANCH   8   9
HETATM    9  C2  UNL     1     -32.446   7.529   2.648  1.00 20.00    -0.066 C 
HETATM   10  C1  UNL     1     -33.161   8.420   1.944  1.00 20.00     0.015 C 
HETATM   11  C7  UNL     1     -32.320   6.100   2.203  1.00 20.00     0.044 C 
ENDBRANCH   8   9
ENDBRANCH   1   8
TORSDOF 3
