REMARK  2 active torsions:
REMARK  status: ('A' for Active; 'I' for Inactive)
REMARK    1  A    between atoms: C4_4  and  C10_10 
REMARK    2  A    between atoms: C10_10  and  C11_11 
ROOT
HETATM    1  C1  UNL     1     -33.468   5.146   2.898  1.00 20.00     0.007 C 
HETATM    2  C2  UNL     1     -33.907   4.209   4.025  1.00 20.00     0.009 C 
HETATM    3  C3  UNL     1     -33.694   6.373   4.996  1.00 20.00     0.015 C 
HETATM    4  C4  UNL     1     -33.430   6.559   3.498  1.00 20.00     0.005 C 
HETATM    5  C5  UNL     1     -34.563   5.110   5.081  1.00 20.00    -0.047 C 
HETATM    6  C6  UNL     1     -34.501   4.481   6.475  1.00 20.00     0.015 C 
HETATM    7  C7  UNL     1     -36.029   5.406   4.726  1.00 20.00     0.015 C 
ENDROOT
BRANCH   4   8
HETATM    8  C10 UNL     1     -32.124   7.288   3.220  1.00 20.00     0.089 C 
HETATM    9 CL12 UNL     1     -31.854   8.512   4.504  1.00 20.00    -0.124 Cl
BRANCH   8  10
HETATM   10  C11 UNL     1     -32.057   7.903   1.799  1.00 20.00    -0.004 C 
HETATM   11  C8  UNL     1     -32.142   6.873   0.668  1.00 20.00     0.011 C 
HETATM   12  C9  UNL     1     -33.122   8.986   1.593  1.00 20.00     0.011 C 
ENDBRANCH   8  10
ENDBRANCH   4   8
TORSDOF 2
