REMARK  4 active torsions:
REMARK  status: ('A' for Active; 'I' for Inactive)
REMARK    1  A    between atoms: C5_5  and  C6_6 
REMARK    2  A    between atoms: C6_6  and  C9_9 
REMARK    3  A    between atoms: C7_7  and  C8_8 
REMARK    4  A    between atoms: C7_7  and  N10_10 
ROOT
HETATM    1  C1  UNL     1     -33.167   5.021   2.905  1.00 20.00     0.028 C 
HETATM    2  C2  UNL     1     -32.703   6.086   1.917  1.00 20.00     0.008 C 
HETATM    3  C3  UNL     1     -34.164   5.581   3.909  1.00 20.00     0.235 C 
HETATM    4  C4  UNL     1     -33.154   7.862   3.653  1.00 20.00     0.239 C 
HETATM    5  C5  UNL     1     -32.142   7.313   2.646  1.00 20.00     0.012 C 
HETATM    6  N10 UNL     1     -33.552   6.766   4.615  1.00 20.00    -0.069 N 
HETATM    7  H30 UNL     1     -32.693   6.438   5.077  1.00 20.00     0.280 HD
ENDROOT
BRANCH   6   8
HETATM    8  C7  UNL     1     -34.448   7.285   5.706  1.00 20.00     0.266 C 
BRANCH   8   9
HETATM    9  C8  UNL     1     -34.279   6.422   6.936  1.00 20.00     0.249 C 
HETATM   10  F11 UNL     1     -34.653   5.148   6.642  1.00 20.00    -0.254 F 
ENDBRANCH   8   9
ENDBRANCH   6   8
BRANCH   5  11
HETATM   11  C6  UNL     1     -31.745   8.398   1.646  1.00 20.00     0.021 C 
BRANCH  11  12
HETATM   12  C9  UNL     1     -32.888   8.822   0.734  1.00 20.00     0.115 C 
HETATM   13 CL12 UNL     1     -32.385  10.065  -0.435  1.00 20.00    -0.130 Cl
ENDBRANCH  11  12
ENDBRANCH   5  11
TORSDOF 4
