REMARK  1 active torsions:
REMARK  status: ('A' for Active; 'I' for Inactive)
REMARK    1  A    between atoms: C4_4  and  S8_8 
ROOT
HETATM    1  C1  UNL     1     -32.875   4.579   3.283  1.00 20.00     0.015 C 
HETATM    2  C2  UNL     1     -34.051   4.312   4.221  1.00 20.00     0.010 C 
HETATM    3  C3  UNL     1     -33.457   6.697   4.193  1.00 20.00     0.023 C 
HETATM    4  C4  UNL     1     -33.074   6.031   2.874  1.00 20.00     0.045 C 
HETATM    5  C5  UNL     1     -34.383   5.670   4.886  1.00 20.00    -0.047 C 
HETATM    6  C6  UNL     1     -35.859   6.030   4.652  1.00 20.00     0.015 C 
HETATM    7  C7  UNL     1     -34.112   5.629   6.394  1.00 20.00     0.015 C 
ENDROOT
BRANCH   4   8
HETATM    8  S8  UNL     1     -31.586   6.753   2.136  1.00 20.00    -0.177 SA
HETATM    9  H22 UNL     1     -32.121   7.961   1.921  1.00 20.00     0.102 HD
ENDBRANCH   4   8
TORSDOF 1
