REMARK  3 active torsions:
REMARK  status: ('A' for Active; 'I' for Inactive)
REMARK    1  A    between atoms: C2_2  and  C8_8 
REMARK    2  A    between atoms: C6_6  and  C8_8 
REMARK    3  A    between atoms: C8_8  and  N9_9 
ROOT
HETATM    1  C8  UNL     1     -33.508   6.374   3.325  1.00 20.00     0.255 C 
ENDROOT
BRANCH   1   2
HETATM    2  C2  UNL     1     -32.422   7.373   3.039  1.00 20.00    -0.001 C 
HETATM    3  C1  UNL     1     -32.561   8.409   2.204  1.00 20.00     0.009 C 
ENDBRANCH   1   2
BRANCH   1   4
HETATM    4  C6  UNL     1     -34.341   6.781   4.534  1.00 20.00     0.084 C 
HETATM    5  C4  UNL     1     -35.380   5.731   4.923  1.00 20.00     0.018 C 
HETATM    6  C3  UNL     1     -34.679   4.693   5.787  1.00 20.00     0.011 C 
HETATM    7  C5  UNL     1     -33.910   5.459   6.848  1.00 20.00     0.074 C 
HETATM    8  S10 UNL     1     -33.271   6.932   6.004  1.00 20.00    -0.162 SA
ENDBRANCH   1   4
BRANCH   1   9
HETATM    9  N9  UNL     1     -32.883   5.089   3.537  1.00 20.00     0.088 N 
HETATM   10  C7  UNL     1     -32.549   4.443   2.270  1.00 20.00     0.307 C 
HETATM   11  H25 UNL     1     -32.023   5.206   4.080  1.00 20.00     0.316 HD
ENDBRANCH   1   9
TORSDOF 3
