REMARK  0 active torsions:
REMARK  status: ('A' for Active; 'I' for Inactive)
ROOT
HETATM    1  C1  UNL     1     -32.419   7.883   1.286  1.00 20.00     0.064 C 
HETATM    2  C2  UNL     1     -32.510   7.767   3.765  1.00 20.00     0.020 C 
HETATM    3  C3  UNL     1     -33.153   6.666   4.601  1.00 20.00     0.010 C 
HETATM    4  C4  UNL     1     -32.731   5.702   2.453  1.00 20.00     0.027 C 
HETATM    5  C5  UNL     1     -32.058   7.086   2.467  1.00 20.00     0.093 C 
HETATM    6  C6  UNL     1     -33.792   5.727   3.569  1.00 20.00    -0.046 C 
HETATM    7  C7  UNL     1     -34.024   4.331   4.154  1.00 20.00     0.015 C 
HETATM    8  C8  UNL     1     -35.130   6.282   3.054  1.00 20.00     0.015 C 
HETATM    9  N9  UNL     1     -32.704   8.512   0.354  1.00 20.00    -0.197 NA
ENDROOT
TORSDOF 0
