REMARK  2 active torsions:
REMARK  status: ('A' for Active; 'I' for Inactive)
REMARK    1  A    between atoms: C5_5  and  C6_6 
REMARK    2  A    between atoms: C5_5  and  N7_7 
ROOT
HETATM    1  C1  UNL     1     -32.877   4.656   2.218  1.00 20.00     0.048 C 
HETATM    2  C2  UNL     1     -34.176   4.439   2.985  1.00 20.00     0.273 C 
HETATM    3  C3  UNL     1     -33.219   6.318   3.956  1.00 20.00     0.288 C 
HETATM    4  C4  UNL     1     -32.268   5.907   2.841  1.00 20.00     0.087 C 
HETATM    5  N7  UNL     1     -33.892   5.058   4.280  1.00 20.00     0.091 N 
HETATM    6 BR9  UNL     1     -32.080   7.332   1.536  1.00 20.00    -0.089 Br
ENDROOT
BRANCH   5   7
HETATM    7  C5  UNL     1     -35.094   5.258   5.076  1.00 20.00     0.303 C 
BRANCH   7   8
HETATM    8  C6  UNL     1     -34.774   5.870   6.423  1.00 20.00     0.252 C 
HETATM    9  F8  UNL     1     -34.162   7.069   6.230  1.00 20.00    -0.254 F 
ENDBRANCH   7   8
ENDBRANCH   5   7
TORSDOF 2
