REMARK  3 active torsions:
REMARK  status: ('A' for Active; 'I' for Inactive)
REMARK    1  A    between atoms: C4_4  and  C5_5 
REMARK    2  A    between atoms: C6_6  and  C7_7 
REMARK    3  A    between atoms: C6_6  and  N8_8 
ROOT
HETATM    1  C1  UNL     1     -32.693   5.438   2.084  1.00 20.00     0.035 C 
HETATM    2  C2  UNL     1     -33.735   5.370   3.182  1.00 20.00     0.235 C 
HETATM    3  C3  UNL     1     -32.293   7.327   3.495  1.00 20.00     0.240 C 
HETATM    4  C4  UNL     1     -32.319   6.914   2.027  1.00 20.00     0.027 C 
HETATM    5  N8  UNL     1     -33.253   6.381   4.197  1.00 20.00    -0.068 N 
HETATM    6  H24 UNL     1     -32.702   5.861   4.897  1.00 20.00     0.280 HD
ENDROOT
BRANCH   5   7
HETATM    7  C6  UNL     1     -34.358   7.065   4.938  1.00 20.00     0.266 C 
BRANCH   7   8
HETATM    8  C7  UNL     1     -35.162   6.030   5.691  1.00 20.00     0.249 C 
HETATM    9  F9  UNL     1     -34.340   5.360   6.543  1.00 20.00    -0.254 F 
ENDBRANCH   7   8
ENDBRANCH   5   7
BRANCH   4  10
HETATM   10  C5  UNL     1     -33.319   7.739   1.217  1.00 20.00     0.121 C 
HETATM   11 CL10 UNL     1     -32.837   9.447   1.194  1.00 20.00    -0.130 Cl
ENDBRANCH   4  10
TORSDOF 3
