REMARK  2 active torsions:
REMARK  status: ('A' for Active; 'I' for Inactive)
REMARK    1  A    between atoms: C3_3  and  C8_8 
REMARK    2  A    between atoms: C3_3  and  C9_9 
ROOT
HETATM    1  C1  UNL     1     -32.379   7.822  -0.108  1.00 20.00     0.012 C 
HETATM    2  C2  UNL     1     -32.267   7.673   1.078  1.00 20.00    -0.110 C 
HETATM    3  C9  UNL     1     -32.123   7.497   2.527  1.00 20.00     0.172 C 
ENDROOT
BRANCH   3   4
HETATM    4  C3  UNL     1     -32.842   6.264   3.037  1.00 20.00     0.151 C 
HETATM    5  O10 UNL     1     -32.562   5.123   2.672  1.00 20.00    -0.296 OA
BRANCH   4   6
HETATM    6  C8  UNL     1     -33.933   6.505   4.031  1.00 20.00     0.117 C 
HETATM    7  C6  UNL     1     -33.384   7.221   5.268  1.00 20.00     0.023 C 
HETATM    8  C4  UNL     1     -34.274   7.058   6.494  1.00 20.00     0.002 C 
HETATM    9  C5  UNL     1     -34.318   5.619   7.013  1.00 20.00     0.010 C 
HETATM   10  C7  UNL     1     -33.988   4.541   5.985  1.00 20.00     0.075 C 
HETATM   11  S11 UNL     1     -34.719   4.891   4.365  1.00 20.00    -0.157 SA
ENDBRANCH   4   6
ENDBRANCH   3   4
TORSDOF 2
