REMARK  4 active torsions:
REMARK  status: ('A' for Active; 'I' for Inactive)
REMARK    1  A    between atoms: C3_3  and  C5_5 
REMARK    2  A    between atoms: C3_3  and  N7_7 
REMARK    3  A    between atoms: C4_4  and  C6_6 
REMARK    4  A    between atoms: C4_4  and  N7_7 
ROOT
HETATM    1  C2  UNL     1     -34.551   8.139   3.497  1.00 20.00     0.310 C 
HETATM    2  N7  UNL     1     -33.825   7.131   4.270  1.00 20.00     0.087 N 
ENDROOT
BRANCH   2   3
HETATM    3  C3  UNL     1     -34.097   7.288   5.698  1.00 20.00     0.303 C 
BRANCH   3   4
HETATM    4  C5  UNL     1     -33.811   6.012   6.461  1.00 20.00     0.252 C 
HETATM    5  F8  UNL     1     -34.611   5.022   5.982  1.00 20.00    -0.254 F 
ENDBRANCH   3   4
ENDBRANCH   2   3
BRANCH   2   6
HETATM    6  C4  UNL     1     -32.389   7.225   4.009  1.00 20.00     0.291 C 
BRANCH   6   7
HETATM    7  C6  UNL     1     -32.005   6.576   2.678  1.00 20.00     0.106 C 
HETATM    8  C1  UNL     1     -32.737   5.266   2.415  1.00 20.00     0.028 C 
HETATM    9 CL9  UNL     1     -32.286   7.705   1.317  1.00 20.00    -0.124 Cl
ENDBRANCH   6   7
ENDBRANCH   2   6
TORSDOF 4
