REMARK  1 active torsions:
REMARK  status: ('A' for Active; 'I' for Inactive)
REMARK    1  A    between atoms: C5_5  and  O11_11 
ROOT
HETATM    1  C1  UNL     1     -32.668   7.163   3.223  1.00 20.00     0.098 C 
HETATM    2  C2  UNL     1     -34.799   5.922   3.541  1.00 20.00     0.054 C 
HETATM    3  C3  UNL     1     -35.147   6.538   4.891  1.00 20.00     0.013 C 
HETATM    4  C4  UNL     1     -32.949   5.429   4.982  1.00 20.00     0.062 C 
HETATM    5  C5  UNL     1     -33.275   5.863   3.548  1.00 20.00     0.148 C 
HETATM    6  C6  UNL     1     -34.101   5.966   5.873  1.00 20.00    -0.044 C 
HETATM    7  C7  UNL     1     -33.602   7.057   6.829  1.00 20.00     0.015 C 
HETATM    8  C8  UNL     1     -34.708   4.821   6.698  1.00 20.00     0.015 C 
HETATM    9  N10 UNL     1     -32.189   8.189   2.966  1.00 20.00    -0.194 NA
ENDROOT
BRANCH   5  10
HETATM   10  O11 UNL     1     -32.810   4.883   2.631  1.00 20.00    -0.370 OA
HETATM   11  C9  UNL     1     -33.151   5.218   1.293  1.00 20.00     0.204 C 
ENDBRANCH   5  10
TORSDOF 1
