REMARK  0 active torsions:
REMARK  status: ('A' for Active; 'I' for Inactive)
ROOT
HETATM    1  C1  UNL     1     -32.237   7.510   1.702  1.00 20.00     0.064 C 
HETATM    2  C2  UNL     1     -33.215   5.429   2.642  1.00 20.00     0.020 C 
HETATM    3  C3  UNL     1     -34.023   5.308   3.929  1.00 20.00     0.010 C 
HETATM    4  C4  UNL     1     -32.764   7.330   4.131  1.00 20.00     0.027 C 
HETATM    5  C5  UNL     1     -32.264   6.612   2.865  1.00 20.00     0.093 C 
HETATM    6  C6  UNL     1     -34.157   6.749   4.435  1.00 20.00    -0.046 C 
HETATM    7  C7  UNL     1     -35.255   7.513   3.676  1.00 20.00     0.015 C 
HETATM    8  C8  UNL     1     -34.468   6.789   5.933  1.00 20.00     0.015 C 
HETATM    9  N9  UNL     1     -32.216   8.218   0.783  1.00 20.00    -0.197 NA
ENDROOT
TORSDOF 0
