REMARK  0 active torsions:
REMARK  status: ('A' for Active; 'I' for Inactive)
ROOT
HETATM    1  C1  UNL     1     -32.043   7.609   1.763  1.00 20.00     0.088 C 
HETATM    2  C2  UNL     1     -33.087   6.593   3.681  1.00 20.00    -0.069 C 
HETATM    3  C3  UNL     1     -32.461   7.632   3.118  1.00 20.00     0.096 C 
HETATM    4  C4  UNL     1     -33.416   5.311   2.970  1.00 20.00     0.036 C 
HETATM    5  C5  UNL     1     -33.581   6.560   5.102  1.00 20.00     0.043 C 
HETATM    6  C6  UNL     1     -33.943   4.414   4.089  1.00 20.00     0.013 C 
HETATM    7  C7  UNL     1     -34.568   5.378   5.113  1.00 20.00    -0.044 C 
HETATM    8  C8  UNL     1     -35.975   5.821   4.672  1.00 20.00     0.015 C 
HETATM    9  C9  UNL     1     -34.660   4.737   6.500  1.00 20.00     0.015 C 
HETATM   10  N10 UNL     1     -31.699   7.594   0.655  1.00 20.00    -0.192 NA
ENDROOT
TORSDOF 0
