REMARK  2 active torsions:
REMARK  status: ('A' for Active; 'I' for Inactive)
REMARK    1  A    between atoms: C1_1  and  C5_5 
REMARK    2  A    between atoms: C1_1  and  C11_11 
ROOT
HETATM    1  C2  UNL     1     -33.044   4.495   4.372  1.00 20.00     0.013 C 
HETATM    2  C3  UNL     1     -34.037   4.457   5.529  1.00 20.00     0.009 C 
HETATM    3  C4  UNL     1     -33.558   6.767   5.150  1.00 20.00     0.021 C 
HETATM    4  C5  UNL     1     -32.624   5.962   4.236  1.00 20.00     0.056 C 
HETATM    5  C6  UNL     1     -34.726   5.827   5.494  1.00 20.00    -0.047 C 
HETATM    6  C7  UNL     1     -35.348   6.176   6.849  1.00 20.00     0.015 C 
HETATM    7  C8  UNL     1     -35.819   5.876   4.414  1.00 20.00     0.015 C 
ENDROOT
BRANCH   4   8
HETATM    8  C1  UNL     1     -32.707   6.424   2.812  1.00 20.00     0.134 C 
HETATM    9  O12 UNL     1     -33.051   5.651   1.919  1.00 20.00    -0.297 OA
BRANCH   8  10
HETATM   10  C11 UNL     1     -32.314   7.872   2.534  1.00 20.00     0.047 C 
HETATM   11  C9  UNL     1     -31.277   8.334   3.551  1.00 20.00     0.017 C 
HETATM   12  C10 UNL     1     -31.787   8.032   1.110  1.00 20.00     0.017 C 
ENDBRANCH   8  10
ENDBRANCH   4   8
TORSDOF 2
