REMARK  1 active torsions:
REMARK  status: ('A' for Active; 'I' for Inactive)
REMARK    1  A    between atoms: C3_3  and  C8_8 
ROOT
HETATM    1  C1  UNL     1     -31.662   7.988   1.526  1.00 20.00     0.021 C 
HETATM    2  C2  UNL     1     -32.167   7.075   2.121  1.00 20.00    -0.037 C 
HETATM    3  C3  UNL     1     -32.773   5.976   2.834  1.00 20.00     0.235 C 
HETATM    4  O10 UNL     1     -32.476   4.825   2.545  1.00 20.00    -0.280 OA
ENDROOT
BRANCH   3   5
HETATM    5  C8  UNL     1     -33.753   6.343   3.912  1.00 20.00     0.129 C 
HETATM    6  C6  UNL     1     -33.051   7.198   4.974  1.00 20.00     0.047 C 
HETATM    7  C4  UNL     1     -33.848   7.263   6.273  1.00 20.00     0.006 C 
HETATM    8  C5  UNL     1     -34.234   5.861   6.727  1.00 20.00     0.026 C 
HETATM    9  C7  UNL     1     -34.920   5.097   5.604  1.00 20.00     0.169 C 
HETATM   10  O11 UNL     1     -34.110   5.058   4.431  1.00 20.00    -0.372 OA
HETATM   11  C9  UNL     1     -34.948   7.043   3.266  1.00 20.00     0.055 C 
ENDBRANCH   3   5
TORSDOF 1
