REMARK  2 active torsions:
REMARK  status: ('A' for Active; 'I' for Inactive)
REMARK    1  A    between atoms: C5_5  and  C6_6 
REMARK    2  A    between atoms: C5_5  and  N7_7 
ROOT
HETATM    1  C1  UNL     1     -34.235   5.712   3.829  1.00 20.00     0.052 C 
HETATM    2  C2  UNL     1     -32.942   5.885   3.033  1.00 20.00     0.274 C 
HETATM    3  C3  UNL     1     -32.932   7.569   4.638  1.00 20.00     0.292 C 
HETATM    4  C4  UNL     1     -34.315   6.943   4.724  1.00 20.00     0.112 C 
HETATM    5  N7  UNL     1     -32.462   7.253   3.280  1.00 20.00     0.092 N 
HETATM    6 CL9  UNL     1     -34.763   6.543   6.392  1.00 20.00    -0.123 Cl
ENDROOT
BRANCH   5   7
HETATM    7  C5  UNL     1     -32.989   8.190   2.288  1.00 20.00     0.303 C 
BRANCH   7   8
HETATM    8  C6  UNL     1     -32.191   8.145   1.003  1.00 20.00     0.252 C 
HETATM    9  F8  UNL     1     -32.731   9.024   0.116  1.00 20.00    -0.254 F 
ENDBRANCH   7   8
ENDBRANCH   5   7
TORSDOF 2
