REMARK  1 active torsions:
REMARK  status: ('A' for Active; 'I' for Inactive)
REMARK    1  A    between atoms: C7_7  and  N8_8 
ROOT
HETATM    1  C1  UNL     1     -32.689   5.536   2.393  1.00 20.00     0.048 C 
HETATM    2  C2  UNL     1     -33.707   5.276   3.496  1.00 20.00     0.274 C 
HETATM    3  C3  UNL     1     -33.074   7.491   3.782  1.00 20.00     0.288 C 
HETATM    4  C4  UNL     1     -32.299   7.000   2.568  1.00 20.00     0.087 C 
HETATM    5  N8  UNL     1     -33.328   6.251   4.519  1.00 20.00     0.093 N 
HETATM    6 BR9  UNL     1     -32.744   8.047   0.995  1.00 20.00    -0.089 Br
ENDROOT
BRANCH   5   7
HETATM    7  C7  UNL     1     -34.354   6.411   5.539  1.00 20.00     0.215 C 
HETATM    8  C5  UNL     1     -33.896   7.455   6.548  1.00 20.00     0.042 C 
HETATM    9  C6  UNL     1     -34.608   5.064   6.199  1.00 20.00     0.042 C 
ENDBRANCH   5   7
TORSDOF 1
