REMARK  0 active torsions:
REMARK  status: ('A' for Active; 'I' for Inactive)
ROOT
HETATM    1  C1  UNL     1     -32.623   7.621   4.751  1.00 20.00     0.016 C 
HETATM    2  C2  UNL     1     -34.065   7.423   5.203  1.00 20.00     0.010 C 
HETATM    3  C3  UNL     1     -33.421   5.585   3.705  1.00 20.00     0.024 C 
HETATM    4  C4  UNL     1     -32.525   6.800   3.478  1.00 20.00     0.058 C 
HETATM    5  C5  UNL     1     -34.381   5.953   4.867  1.00 20.00    -0.047 C 
HETATM    6  C6  UNL     1     -35.847   5.792   4.451  1.00 20.00     0.015 C 
HETATM    7  C7  UNL     1     -34.108   5.056   6.086  1.00 20.00     0.015 C 
HETATM    8 BR8  UNL     1     -33.171   7.840   1.951  1.00 20.00    -0.091 Br
ENDROOT
TORSDOF 0
