REMARK  3 active torsions:
REMARK  status: ('A' for Active; 'I' for Inactive)
REMARK    1  A    between atoms: C3_3  and  C7_7 
REMARK    2  A    between atoms: C6_6  and  C8_8 
REMARK    3  A    between atoms: C7_7  and  C8_8 
ROOT
HETATM    1  C1  UNL     1     -31.900   8.367   0.328  1.00 20.00     0.012 C 
HETATM    2  C2  UNL     1     -32.197   7.524   1.130  1.00 20.00    -0.117 C 
HETATM    3  C6  UNL     1     -32.560   6.486   2.107  1.00 20.00     0.098 C 
ENDROOT
BRANCH   3   4
HETATM    4  C8  UNL     1     -32.949   7.046   3.492  1.00 20.00     0.006 C 
HETATM    5  C5  UNL     1     -31.826   7.939   4.045  1.00 20.00     0.011 C 
BRANCH   4   6
HETATM    6  C7  UNL     1     -33.346   5.961   4.522  1.00 20.00     0.087 C 
HETATM    7  C4  UNL     1     -34.186   4.832   3.921  1.00 20.00     0.021 C 
BRANCH   6   8
HETATM    8  C3  UNL     1     -34.220   6.518   5.665  1.00 20.00     0.177 C 
HETATM    9  O9  UNL     1     -35.058   5.717   6.166  1.00 20.00    -0.648 OA
HETATM   10  O10 UNL     1     -33.984   7.724   5.967  1.00 20.00    -0.648 OA
ENDBRANCH   6   8
ENDBRANCH   4   6
ENDBRANCH   3   4
TORSDOF 3
