REMARK  3 active torsions:
REMARK  status: ('A' for Active; 'I' for Inactive)
REMARK    1  A    between atoms: C2_2  and  C9_9 
REMARK    2  A    between atoms: C3_3  and  C6_6 
REMARK    3  A    between atoms: C7_7  and  C9_9 
ROOT
HETATM    1  C4  UNL     1     -34.191   6.022   6.532  1.00 20.00     0.016 C 
HETATM    2  C5  UNL     1     -34.083   7.559   6.572  1.00 20.00     0.007 C 
HETATM    3  C6  UNL     1     -34.690   6.156   5.074  1.00 20.00     0.091 C 
HETATM    4  C7  UNL     1     -33.962   7.534   5.026  1.00 20.00     0.004 C 
ENDROOT
BRANCH   4   5
HETATM    5  C9  UNL     1     -32.536   7.597   4.494  1.00 20.00     0.038 C 
BRANCH   5   6
HETATM    6  C2  UNL     1     -32.479   7.865   3.010  1.00 20.00    -0.093 C 
HETATM    7  C1  UNL     1     -31.879   7.011   2.166  1.00 20.00     0.014 C 
HETATM    8  C8  UNL     1     -33.091   9.147   2.522  1.00 20.00     0.042 C 
ENDBRANCH   5   6
ENDBRANCH   4   5
BRANCH   3   9
HETATM    9  C3  UNL     1     -34.217   5.116   4.125  1.00 20.00     0.177 C 
HETATM   10  O10 UNL     1     -34.164   3.944   4.592  1.00 20.00    -0.648 OA
HETATM   11  O11 UNL     1     -33.929   5.542   2.971  1.00 20.00    -0.648 OA
ENDBRANCH   3   9
TORSDOF 3
