REMARK  2 active torsions:
REMARK  status: ('A' for Active; 'I' for Inactive)
REMARK    1  A    between atoms: C1_1  and  C5_5 
REMARK    2  A    between atoms: C6_6  and  C10_10 
ROOT
HETATM    1  C2  UNL     1     -32.529   7.432   4.275  1.00 20.00     0.016 C 
HETATM    2  C3  UNL     1     -32.183   8.061   2.926  1.00 20.00     0.005 C 
HETATM    3  C4  UNL     1     -33.792   6.473   1.783  1.00 20.00     0.009 C 
HETATM    4  C5  UNL     1     -33.937   6.844   4.264  1.00 20.00     0.090 C 
HETATM    5  C6  UNL     1     -32.378   7.077   1.764  1.00 20.00    -0.014 C 
HETATM    6  C7  UNL     1     -34.152   5.826   3.133  1.00 20.00    -0.004 C 
HETATM    7  C8  UNL     1     -33.386   4.509   3.326  1.00 20.00     0.011 C 
ENDROOT
BRANCH   4   8
HETATM    8  C1  UNL     1     -34.223   6.223   5.619  1.00 20.00     0.177 C 
HETATM    9  O11 UNL     1     -33.594   6.729   6.588  1.00 20.00    -0.648 OA
HETATM   10  O12 UNL     1     -35.059   5.275   5.601  1.00 20.00    -0.648 OA
ENDBRANCH   4   8
BRANCH   5  11
HETATM   11  C10 UNL     1     -32.108   7.768   0.427  1.00 20.00     0.000 C 
HETATM   12  C9  UNL     1     -33.059   8.894   0.187  1.00 20.00     0.005 C 
ENDBRANCH   5  11
TORSDOF 2
