REMARK  3 active torsions:
REMARK  status: ('A' for Active; 'I' for Inactive)
REMARK    1  A    between atoms: C6_6  and  C7_7 
REMARK    2  A    between atoms: C6_6  and  C8_8 
REMARK    3  A    between atoms: C7_7  and  N9_9 
ROOT
HETATM    1  C1  UNL     1     -33.995   3.780   4.475  1.00 20.00     0.029 C 
HETATM    2  C2  UNL     1     -34.123   4.590   5.762  1.00 20.00     0.023 C 
HETATM    3  C3  UNL     1     -32.980   4.393   3.521  1.00 20.00     0.235 C 
HETATM    4  C4  UNL     1     -33.412   6.663   4.506  1.00 20.00     0.254 C 
HETATM    5  C5  UNL     1     -34.435   6.053   5.457  1.00 20.00     0.108 C 
HETATM    6  N9  UNL     1     -33.351   5.830   3.245  1.00 20.00    -0.070 N 
HETATM    7 CL11 UNL     1     -34.471   6.992   6.977  1.00 20.00    -0.123 Cl
HETATM    8  H27 UNL     1     -34.295   5.828   2.835  1.00 20.00     0.279 HD
ENDROOT
BRANCH   6   9
HETATM    9  C7  UNL     1     -32.444   6.449   2.216  1.00 20.00     0.237 C 
BRANCH   9  10
HETATM   10  C6  UNL     1     -33.141   7.651   1.596  1.00 20.00     0.059 C 
BRANCH  10  11
HETATM   11  C8  UNL     1     -32.248   8.342   0.581  1.00 20.00     0.223 C 
HETATM   12  F10 UNL     1     -32.912   9.402   0.050  1.00 20.00    -0.255 F 
ENDBRANCH  10  11
ENDBRANCH   9  10
ENDBRANCH   6   9
TORSDOF 3
