REMARK  5 active torsions:
REMARK  status: ('A' for Active; 'I' for Inactive)
REMARK    1  A    between atoms: C1_1  and  C4_4 
REMARK    2  A    between atoms: C1_1  and  C8_8 
REMARK    3  A    between atoms: C4_4  and  C5_5 
REMARK    4  A    between atoms: C5_5  and  C6_6 
REMARK    5  A    between atoms: C6_6  and  C7_7 
ROOT
HETATM    1  C1  UNL     1     -33.148   6.428   3.126  1.00 20.00     0.130 C 
HETATM    2  O9  UNL     1     -32.479   5.403   2.995  1.00 20.00    -0.298 OA
ENDROOT
BRANCH   1   3
HETATM    3  C4  UNL     1     -34.618   6.382   3.520  1.00 20.00     0.079 C 
BRANCH   3   4
HETATM    4  C5  UNL     1     -34.964   5.223   4.455  1.00 20.00     0.010 C 
BRANCH   4   5
HETATM    5  C6  UNL     1     -34.175   5.278   5.768  1.00 20.00     0.032 C 
BRANCH   5   6
HETATM    6  C7  UNL     1     -34.446   6.567   6.525  1.00 20.00     0.222 C 
HETATM    7  F10 UNL     1     -34.072   7.624   5.755  1.00 20.00    -0.255 F 
ENDBRANCH   5   6
ENDBRANCH   4   5
ENDBRANCH   3   4
ENDBRANCH   1   3
BRANCH   1   8
HETATM    8  C8  UNL     1     -32.562   7.813   2.848  1.00 20.00     0.047 C 
HETATM    9  C2  UNL     1     -32.744   8.172   1.378  1.00 20.00     0.017 C 
HETATM   10  C3  UNL     1     -31.089   7.876   3.243  1.00 20.00     0.017 C 
ENDBRANCH   1   8
TORSDOF 5
