REMARK  3 active torsions:
REMARK  status: ('A' for Active; 'I' for Inactive)
REMARK    1  A    between atoms: C6_6  and  C7_7 
REMARK    2  A    between atoms: C6_6  and  C8_8 
REMARK    3  A    between atoms: C7_7  and  N9_9 
ROOT
HETATM    1  C1  UNL     1     -34.381   5.375   3.970  1.00 20.00     0.050 C 
HETATM    2  C2  UNL     1     -34.133   7.322   5.543  1.00 20.00     0.050 C 
HETATM    3  C3  UNL     1     -32.923   5.588   3.546  1.00 20.00     0.274 C 
HETATM    4  C4  UNL     1     -32.683   7.467   5.063  1.00 20.00     0.274 C 
HETATM    5  C5  UNL     1     -34.664   5.897   5.380  1.00 20.00     0.085 C 
HETATM    6  N9  UNL     1     -32.448   6.969   3.702  1.00 20.00     0.088 N 
HETATM    7 CL11 UNL     1     -33.928   4.814   6.604  1.00 20.00    -0.125 Cl
ENDROOT
BRANCH   6   8
HETATM    8  C7  UNL     1     -32.997   7.862   2.683  1.00 20.00     0.275 C 
BRANCH   8   9
HETATM    9  C6  UNL     1     -32.201   7.738   1.385  1.00 20.00     0.061 C 
BRANCH   9  10
HETATM   10  C8  UNL     1     -32.737   8.672   0.314  1.00 20.00     0.223 C 
HETATM   11  F10 UNL     1     -32.657   9.954   0.757  1.00 20.00    -0.255 F 
ENDBRANCH   9  10
ENDBRANCH   8   9
ENDBRANCH   6   8
TORSDOF 3
