REMARK  0 active torsions:
REMARK  status: ('A' for Active; 'I' for Inactive)
ROOT
HETATM    1  C1  UNL     1     -32.533   7.939   2.673  1.00 20.00     0.006 C 
HETATM    2  C2  UNL     1     -33.344   8.493   3.855  1.00 20.00     0.038 C 
HETATM    3  C3  UNL     1     -32.137   6.756   3.572  1.00 20.00     0.038 C 
HETATM    4  C4  UNL     1     -35.122   5.693   6.462  1.00 20.00     0.046 C 
HETATM    5  C5  UNL     1     -34.661   6.253   4.040  1.00 20.00     0.058 C 
HETATM    6  C6  UNL     1     -34.312   6.965   6.697  1.00 20.00     0.170 C 
HETATM    7  C7  UNL     1     -34.962   5.136   5.042  1.00 20.00     0.087 C 
HETATM    8  C8  UNL     1     -33.403   7.048   4.440  1.00 20.00     0.062 C 
HETATM    9  O9  UNL     1     -33.157   6.970   5.870  1.00 20.00    -0.380 OA
HETATM   10 CL10 UNL     1     -33.673   3.889   4.997  1.00 20.00    -0.125 Cl
ENDROOT
TORSDOF 0
