REMARK  2 active torsions:
REMARK  status: ('A' for Active; 'I' for Inactive)
REMARK    1  A    between atoms: C4_4  and  C7_7 
REMARK    2  A    between atoms: C6_6  and  C9_9 
ROOT
HETATM    1  C5  UNL     1     -32.089   7.397   3.306  1.00 20.00     0.021 A 
HETATM    2  C6  UNL     1     -33.352   7.608   2.527  1.00 20.00     0.009 A 
HETATM    3  C7  UNL     1     -33.103   6.266   3.216  1.00 20.00    -0.012 A 
HETATM    4  C8  UNL     1     -32.745   5.050   2.410  1.00 20.00     0.021 C 
ENDROOT
BRANCH   3   5
HETATM    5  C4  UNL     1     -33.957   5.994   4.487  1.00 20.00    -0.043 A 
HETATM    6  C1  UNL     1     -34.950   4.976   4.575  1.00 20.00     0.015 A 
HETATM    7  C2  UNL     1     -35.558   4.951   5.811  1.00 20.00     0.050 A 
HETATM    8  S10 UNL     1     -34.931   6.152   6.859  1.00 20.00    -0.113 SA
HETATM    9  C3  UNL     1     -33.844   6.709   5.659  1.00 20.00     0.057 A 
ENDBRANCH   3   5
BRANCH   2  10
HETATM   10  C9  UNL     1     -33.304   7.770   1.046  1.00 20.00     0.090 C 
HETATM   11 BR11 UNL     1     -32.840   9.606   0.575  1.00 20.00    -0.096 Br
ENDBRANCH   2  10
TORSDOF 2
