REMARK  2 active torsions:
REMARK  status: ('A' for Active; 'I' for Inactive)
REMARK    1  A    between atoms: C4_4  and  C6_6 
REMARK    2  A    between atoms: C7_7  and  C8_8 
ROOT
HETATM    1  C1  UNL     1     -33.396   4.932   5.545  1.00 20.00     0.015 A 
HETATM    2  C2  UNL     1     -33.879   5.326   6.773  1.00 20.00     0.050 A 
HETATM    3  C3  UNL     1     -34.920   6.575   4.928  1.00 20.00     0.057 A 
HETATM    4  C4  UNL     1     -33.999   5.656   4.476  1.00 20.00    -0.047 A 
HETATM    5  S9  UNL     1     -35.055   6.563   6.635  1.00 20.00    -0.113 SA
ENDROOT
BRANCH   4   6
HETATM    6  C6  UNL     1     -33.661   5.436   2.991  1.00 20.00     0.024 A 
HETATM    7  C5  UNL     1     -32.315   4.842   2.638  1.00 20.00     0.016 A 
HETATM    8  C7  UNL     1     -32.599   6.277   2.308  1.00 20.00     0.004 A 
BRANCH   8   9
HETATM    9  C8  UNL     1     -31.864   7.365   3.014  1.00 20.00     0.090 C 
HETATM   10 BR10 UNL     1     -32.813   9.060   2.828  1.00 20.00    -0.096 Br
ENDBRANCH   8   9
ENDBRANCH   4   6
TORSDOF 2
