REMARK  2 active torsions:
REMARK  status: ('A' for Active; 'I' for Inactive)
REMARK    1  A    between atoms: C3_3  and  O9_9 
REMARK    2  A    between atoms: C4_4  and  C8_8 
ROOT
HETATM    1  C1  UNL     1     -33.254   5.192   3.236  1.00 20.00     0.037 C 
HETATM    2  C2  UNL     1     -32.633   6.552   3.638  1.00 20.00    -0.006 C 
HETATM    3  C3  UNL     1     -33.904   5.129   4.637  1.00 20.00     0.127 C 
HETATM    4  C4  UNL     1     -33.789   6.692   4.695  1.00 20.00    -0.015 C 
HETATM    5  C5  UNL     1     -32.491   7.579   2.531  1.00 20.00     0.011 C 
HETATM    6  C6  UNL     1     -35.042   7.442   4.238  1.00 20.00     0.018 C 
ENDROOT
BRANCH   4   7
HETATM    7  C8  UNL     1     -33.308   7.216   6.048  1.00 20.00     0.007 C 
HETATM    8  C7  UNL     1     -34.432   7.335   7.024  1.00 20.00     0.006 C 
ENDBRANCH   4   7
BRANCH   3   9
HETATM    9  O9  UNL     1     -35.231   4.577   4.700  1.00 20.00    -0.395 OA
HETATM   10  H25 UNL     1     -35.156   3.675   4.364  1.00 20.00     0.210 HD
ENDBRANCH   3   9
TORSDOF 2
