REMARK  1 active torsions:
REMARK  status: ('A' for Active; 'I' for Inactive)
REMARK    1  A    between atoms: C5_5  and  C10_10 
ROOT
HETATM    1  C1  UNL     1     -31.167   8.088   3.138  1.00 20.00     0.017 A 
HETATM    2  C2  UNL     1     -32.710   7.501   5.119  1.00 20.00     0.020 C 
HETATM    3  C3  UNL     1     -32.159   5.733   3.378  1.00 20.00     0.083 C 
HETATM    4  C4  UNL     1     -34.198   5.424   5.192  1.00 20.00     0.082 C 
HETATM    5  C5  UNL     1     -32.567   8.236   2.617  1.00 20.00     0.009 A 
HETATM    6  C6  UNL     1     -32.265   7.202   3.697  1.00 20.00    -0.026 A 
HETATM    7  C7  UNL     1     -34.112   6.941   5.469  1.00 20.00    -0.038 C 
HETATM    8  C8  UNL     1     -34.351   7.164   6.978  1.00 20.00     0.015 C 
HETATM    9  C9  UNL     1     -35.216   7.704   4.708  1.00 20.00     0.015 C 
HETATM   10  S11 UNL     1     -33.786   4.951   3.483  1.00 20.00    -0.168 SA
ENDROOT
BRANCH   5  11
HETATM   11  C10 UNL     1     -32.885   7.872   1.208  1.00 20.00     0.120 C 
HETATM   12 CL12 UNL     1     -32.420   9.176   0.082  1.00 20.00    -0.130 Cl
ENDBRANCH   5  11
TORSDOF 1
