REMARK  1 active torsions:
REMARK  status: ('A' for Active; 'I' for Inactive)
REMARK    1  A    between atoms: C6_6  and  C11_11 
ROOT
HETATM    1  C1  UNL     1     -33.303   4.639   2.978  1.00 20.00     0.002 C 
HETATM    2  C2  UNL     1     -32.199   5.691   2.963  1.00 20.00     0.010 C 
HETATM    3  C3  UNL     1     -33.886   4.468   4.382  1.00 20.00     0.009 C 
HETATM    4  C4  UNL     1     -31.880   8.240   3.225  1.00 20.00     0.016 A 
HETATM    5  C5  UNL     1     -33.277   6.872   4.922  1.00 20.00     0.018 C 
HETATM    6  C6  UNL     1     -33.248   8.098   2.620  1.00 20.00     0.005 A 
HETATM    7  C7  UNL     1     -32.700   7.002   3.524  1.00 20.00    -0.035 A 
HETATM    8  C8  UNL     1     -34.384   5.795   5.005  1.00 20.00    -0.047 C 
HETATM    9  C9  UNL     1     -35.666   6.276   4.297  1.00 20.00     0.015 C 
HETATM   10  C10 UNL     1     -34.728   5.549   6.487  1.00 20.00     0.015 C 
ENDROOT
BRANCH   6  11
HETATM   11  C11 UNL     1     -33.405   7.932   1.148  1.00 20.00     0.090 C 
HETATM   12 BR12 UNL     1     -33.312   9.663   0.252  1.00 20.00    -0.096 Br
ENDBRANCH   6  11
TORSDOF 1
