REMARK  1 active torsions:
REMARK  status: ('A' for Active; 'I' for Inactive)
REMARK    1  A    between atoms: C5_5  and  C7_7 
ROOT
HETATM    1  C1  UNL     1     -34.558   6.391   7.039  1.00 20.00     0.002 C 
HETATM    2  C2  UNL     1     -33.616   7.290   6.219  1.00 20.00     0.010 C 
HETATM    3  C3  UNL     1     -34.450   5.340   5.920  1.00 20.00     0.010 C 
HETATM    4  C4  UNL     1     -34.829   6.989   3.875  1.00 20.00     0.016 A 
HETATM    5  C5  UNL     1     -33.448   6.406   3.699  1.00 20.00     0.005 A 
HETATM    6  C6  UNL     1     -34.062   6.483   5.059  1.00 20.00    -0.036 A 
ENDROOT
BRANCH   5   7
HETATM    7  C7  UNL     1     -32.309   7.289   3.319  1.00 20.00     0.090 C 
HETATM    8 BR8  UNL     1     -32.304   7.606   1.393  1.00 20.00    -0.096 Br
ENDBRANCH   5   7
TORSDOF 1
