REMARK  3 active torsions:
REMARK  status: ('A' for Active; 'I' for Inactive)
REMARK    1  A    between atoms: C2_2  and  C10_10 
REMARK    2  A    between atoms: C3_3  and  C9_9 
REMARK    3  A    between atoms: C4_4  and  O11_11 
ROOT
HETATM    1  C1  UNL     1     -35.328   6.198   4.423  1.00 20.00     0.038 C 
HETATM    2  C2  UNL     1     -34.015   7.015   4.441  1.00 20.00     0.002 C 
HETATM    3  C3  UNL     1     -33.692   6.367   5.818  1.00 20.00     0.019 C 
HETATM    4  C4  UNL     1     -34.715   5.248   5.473  1.00 20.00     0.123 C 
ENDROOT
BRANCH   2   5
HETATM    5  C10 UNL     1     -33.032   6.706   3.322  1.00 20.00    -0.047 C 
HETATM    6  C6  UNL     1     -31.689   7.419   3.582  1.00 20.00     0.015 C 
HETATM    7  C7  UNL     1     -33.596   7.189   1.970  1.00 20.00     0.015 C 
HETATM    8  C8  UNL     1     -32.779   5.187   3.240  1.00 20.00     0.015 C 
ENDBRANCH   2   5
BRANCH   3   9
HETATM    9  C9  UNL     1     -33.996   7.240   7.028  1.00 20.00     0.003 C 
HETATM   10  C5  UNL     1     -33.062   8.407   7.128  1.00 20.00     0.005 C 
ENDBRANCH   3   9
BRANCH   4  11
HETATM   11  O11 UNL     1     -35.596   4.821   6.527  1.00 20.00    -0.395 OA
HETATM   12  H31 UNL     1     -36.322   4.361   6.089  1.00 20.00     0.210 HD
ENDBRANCH   4  11
TORSDOF 3
