REMARK  1 active torsions:
REMARK  status: ('A' for Active; 'I' for Inactive)
REMARK    1  A    between atoms: C6_6  and  C8_8 
ROOT
HETATM    1  C1  UNL     1     -33.525   5.462   3.709  1.00 20.00     0.036 C 
HETATM    2  C2  UNL     1     -33.515   7.279   5.447  1.00 20.00     0.036 C 
HETATM    3  C3  UNL     1     -34.439   7.814   3.071  1.00 20.00     0.016 A 
HETATM    4  C4  UNL     1     -34.555   4.745   4.578  1.00 20.00     0.168 C 
HETATM    5  C5  UNL     1     -34.549   6.457   6.208  1.00 20.00     0.168 C 
HETATM    6  C6  UNL     1     -32.939   7.931   3.007  1.00 20.00     0.005 A 
HETATM    7  C7  UNL     1     -33.582   6.950   3.972  1.00 20.00    -0.032 A 
HETATM    8  O9  UNL     1     -34.356   5.062   5.958  1.00 20.00    -0.391 OA
ENDROOT
BRANCH   6   9
HETATM    9  C8  UNL     1     -32.202   7.491   1.789  1.00 20.00     0.090 C 
HETATM   10 BR10 UNL     1     -32.338   8.840   0.385  1.00 20.00    -0.096 Br
ENDBRANCH   6   9
TORSDOF 1
