REMARK  0 active torsions:
REMARK  status: ('A' for Active; 'I' for Inactive)
ROOT
HETATM    1  C1  UNL     1     -34.180   6.006   6.950  1.00 20.00     0.006 C 
HETATM    2  C2  UNL     1     -33.011   5.646   6.016  1.00 20.00     0.038 C 
HETATM    3  C3  UNL     1     -34.179   7.407   6.315  1.00 20.00     0.038 C 
HETATM    4  C4  UNL     1     -32.414   5.768   2.755  1.00 20.00     0.042 C 
HETATM    5  C5  UNL     1     -32.421   7.681   4.453  1.00 20.00     0.053 C 
HETATM    6  C6  UNL     1     -33.909   5.547   2.985  1.00 20.00     0.170 C 
HETATM    7  C7  UNL     1     -31.973   7.191   3.073  1.00 20.00     0.062 C 
HETATM    8  C8  UNL     1     -33.504   6.780   5.059  1.00 20.00     0.062 C 
HETATM    9  O9  UNL     1     -34.433   6.367   4.028  1.00 20.00    -0.380 OA
HETATM   10 BR10 UNL     1     -32.667   8.402   1.683  1.00 20.00    -0.091 Br
ENDROOT
TORSDOF 0
