REMARK  2 active torsions:
REMARK  status: ('A' for Active; 'I' for Inactive)
REMARK    1  A    between atoms: C3_3  and  C7_7 
REMARK    2  A    between atoms: C4_4  and  O8_8 
ROOT
HETATM    1  C1  UNL     1     -34.076   6.239   6.327  1.00 20.00     0.037 C 
HETATM    2  C2  UNL     1     -33.668   7.562   5.635  1.00 20.00    -0.010 C 
HETATM    3  C3  UNL     1     -34.130   6.921   4.287  1.00 20.00     0.018 C 
HETATM    4  C4  UNL     1     -35.027   5.973   5.137  1.00 20.00     0.122 C 
HETATM    5  C5  UNL     1     -32.226   7.995   5.809  1.00 20.00     0.010 C 
ENDROOT
BRANCH   3   6
HETATM    6  C7  UNL     1     -33.081   6.256   3.405  1.00 20.00     0.003 C 
HETATM    7  C6  UNL     1     -32.150   7.256   2.798  1.00 20.00     0.005 C 
ENDBRANCH   3   6
BRANCH   4   8
HETATM    8  O8  UNL     1     -35.128   4.608   4.697  1.00 20.00    -0.395 OA
HETATM    9  H22 UNL     1     -35.453   4.109   5.458  1.00 20.00     0.210 HD
ENDBRANCH   4   8
TORSDOF 2
