REMARK  1 active torsions:
REMARK  status: ('A' for Active; 'I' for Inactive)
REMARK    1  A    between atoms: C5_5  and  C10_10 
ROOT
HETATM    1  C1  UNL     1     -34.315   7.398   2.596  1.00 20.00     0.017 A 
HETATM    2  C2  UNL     1     -33.281   7.220   4.989  1.00 20.00     0.020 C 
HETATM    3  C3  UNL     1     -32.847   5.375   3.284  1.00 20.00     0.083 C 
HETATM    4  C4  UNL     1     -34.832   5.193   5.245  1.00 20.00     0.082 C 
HETATM    5  C5  UNL     1     -32.895   7.882   2.533  1.00 20.00     0.005 A 
HETATM    6  C6  UNL     1     -33.280   6.793   3.529  1.00 20.00    -0.026 A 
HETATM    7  C7  UNL     1     -33.898   6.185   5.967  1.00 20.00    -0.038 C 
HETATM    8  C8  UNL     1     -32.781   5.439   6.729  1.00 20.00     0.015 C 
HETATM    9  C9  UNL     1     -34.736   6.942   7.021  1.00 20.00     0.015 C 
HETATM   10  S11 UNL     1     -34.047   4.187   3.943  1.00 20.00    -0.168 SA
ENDROOT
BRANCH   5  11
HETATM   11  C10 UNL     1     -32.067   7.626   1.321  1.00 20.00     0.090 C 
HETATM   12 BR12 UNL     1     -32.529   8.883  -0.099  1.00 20.00    -0.096 Br
ENDBRANCH   5  11
TORSDOF 1
