REMARK  1 active torsions:
REMARK  status: ('A' for Active; 'I' for Inactive)
REMARK    1  A    between atoms: C6_6  and  C8_8 
ROOT
HETATM    1  C1  UNL     1     -33.049   6.415   6.116  1.00 20.00     0.011 C 
HETATM    2  C2  UNL     1     -32.538   7.406   5.072  1.00 20.00     0.011 C 
HETATM    3  C3  UNL     1     -32.503   6.134   2.800  1.00 20.00     0.017 A 
HETATM    4  C4  UNL     1     -34.560   6.484   6.303  1.00 20.00     0.074 C 
HETATM    5  C5  UNL     1     -34.655   7.306   3.671  1.00 20.00     0.083 C 
HETATM    6  C6  UNL     1     -32.324   7.598   2.510  1.00 20.00     0.009 A 
HETATM    7  C7  UNL     1     -33.154   7.158   3.709  1.00 20.00    -0.027 A 
HETATM    8  S9  UNL     1     -35.442   6.091   4.763  1.00 20.00    -0.168 SA
ENDROOT
BRANCH   6   9
HETATM    9  C8  UNL     1     -32.921   8.201   1.285  1.00 20.00     0.120 C 
HETATM   10 CL10 UNL     1     -33.085   9.971   1.448  1.00 20.00    -0.130 Cl
ENDBRANCH   6   9
TORSDOF 1
