REMARK  2 active torsions:
REMARK  status: ('A' for Active; 'I' for Inactive)
REMARK    1  A    between atoms: C5_5  and  C8_8 
REMARK    2  A    between atoms: C9_9  and  C10_10 
ROOT
HETATM    1  C1  UNL     1     -33.745   6.687   2.506  1.00 20.00     0.009 A 
HETATM    2  C2  UNL     1     -31.642   7.369   3.479  1.00 20.00     0.009 A 
HETATM    3  C3  UNL     1     -34.270   6.483   3.782  1.00 20.00     0.024 A 
HETATM    4  C4  UNL     1     -32.167   7.166   4.755  1.00 20.00     0.024 A 
HETATM    5  C5  UNL     1     -32.431   7.130   2.354  1.00 20.00    -0.053 A 
HETATM    6  C6  UNL     1     -33.481   6.723   4.907  1.00 20.00     0.034 A 
HETATM    7 CL11 UNL     1     -34.128   6.472   6.482  1.00 20.00    -0.084 Cl
ENDROOT
BRANCH   5   8
HETATM    8  C8  UNL     1     -31.871   7.347   0.991  1.00 20.00     0.024 A 
HETATM    9  C7  UNL     1     -30.810   8.403   0.794  1.00 20.00     0.016 A 
HETATM   10  C9  UNL     1     -32.177   8.609   0.213  1.00 20.00     0.008 A 
BRANCH  10  11
HETATM   11  C10 UNL     1     -33.058   9.689   0.743  1.00 20.00     0.119 C 
HETATM   12 CL12 UNL     1     -32.603  11.280   0.072  1.00 20.00    -0.130 Cl
ENDBRANCH  10  11
ENDBRANCH   5   8
TORSDOF 2
