REMARK  3 active torsions:
REMARK  status: ('A' for Active; 'I' for Inactive)
REMARK    1  A    between atoms: C2_2  and  C7_7 
REMARK    2  A    between atoms: C3_3  and  C9_9 
REMARK    3  A    between atoms: C8_8  and  C9_9 
ROOT
HETATM    1  C1  UNL     1     -33.332   4.757   3.876  1.00 20.00     0.016 A 
HETATM    2  C2  UNL     1     -33.262   6.124   3.259  1.00 20.00     0.009 A 
HETATM    3  C3  UNL     1     -34.140   5.890   4.487  1.00 20.00    -0.036 A 
HETATM    4  C4  UNL     1     -35.631   5.885   4.276  1.00 20.00     0.016 C 
ENDROOT
BRANCH   3   5
HETATM    5  C9  UNL     1     -33.713   6.421   5.830  1.00 20.00    -0.010 C 
HETATM    6  C6  UNL     1     -34.365   5.613   6.965  1.00 20.00     0.011 C 
BRANCH   5   7
HETATM    7  C8  UNL     1     -34.051   7.918   6.033  1.00 20.00     0.000 C 
HETATM    8  C5  UNL     1     -33.644   8.444   7.402  1.00 20.00     0.005 C 
ENDBRANCH   5   7
ENDBRANCH   3   5
BRANCH   2   9
HETATM    9  C7  UNL     1     -31.996   6.909   3.311  1.00 20.00     0.120 C 
HETATM   10 CL10 UNL     1     -32.180   8.488   2.498  1.00 20.00    -0.130 Cl
ENDBRANCH   2   9
TORSDOF 3
