REMARK  1 active torsions:
REMARK  status: ('A' for Active; 'I' for Inactive)
REMARK    1  A    between atoms: C5_5  and  C10_10 
ROOT
HETATM    1  C1  UNL     1     -33.943   7.192   6.659  1.00 20.00     0.002 C 
HETATM    2  C2  UNL     1     -32.919   7.895   5.777  1.00 20.00     0.011 C 
HETATM    3  C3  UNL     1     -34.082   5.823   6.012  1.00 20.00     0.010 C 
HETATM    4  C4  UNL     1     -31.854   7.232   3.512  1.00 20.00     0.017 A 
HETATM    5  C5  UNL     1     -32.933   8.217   3.179  1.00 20.00     0.005 A 
HETATM    6  C6  UNL     1     -33.097   7.295   4.388  1.00 20.00    -0.029 A 
HETATM    7  C7  UNL     1     -34.089   6.119   4.486  1.00 20.00    -0.040 C 
HETATM    8  C8  UNL     1     -33.673   4.850   3.737  1.00 20.00     0.015 C 
HETATM    9  C9  UNL     1     -35.510   6.528   4.060  1.00 20.00     0.015 C 
ENDROOT
BRANCH   5  10
HETATM   10  C10 UNL     1     -33.653   8.082   1.885  1.00 20.00     0.090 C 
HETATM   11 BR11 UNL     1     -32.612   8.877   0.436  1.00 20.00    -0.096 Br
ENDBRANCH   5  10
TORSDOF 1
