REMARK  2 active torsions:
REMARK  status: ('A' for Active; 'I' for Inactive)
REMARK    1  A    between atoms: C4_4  and  C6_6 
REMARK    2  A    between atoms: C5_5  and  C8_8 
ROOT
HETATM    1  C3  UNL     1     -32.650   5.867   3.264  1.00 20.00     0.016 A 
HETATM    2  C5  UNL     1     -33.160   7.063   2.512  1.00 20.00     0.009 A 
HETATM    3  C6  UNL     1     -32.968   7.144   4.025  1.00 20.00    -0.035 A 
HETATM    4  C7  UNL     1     -31.791   7.918   4.568  1.00 20.00     0.016 C 
ENDROOT
BRANCH   3   5
HETATM    5  C4  UNL     1     -34.207   7.214   4.932  1.00 20.00    -0.006 A 
HETATM    6  C1  UNL     1     -34.848   5.991   5.528  1.00 20.00     0.006 A 
HETATM    7  C2  UNL     1     -34.142   6.977   6.416  1.00 20.00     0.006 A 
ENDBRANCH   3   5
BRANCH   2   8
HETATM    8  C8  UNL     1     -32.280   7.777   1.544  1.00 20.00     0.120 C 
HETATM    9 CL9  UNL     1     -32.880   9.428   1.222  1.00 20.00    -0.130 Cl
ENDBRANCH   2   8
TORSDOF 2
