REMARK  2 active torsions:
REMARK  status: ('A' for Active; 'I' for Inactive)
REMARK    1  A    between atoms: C4_4  and  C9_9 
REMARK    2  A    between atoms: C5_5  and  C6_6 
ROOT
HETATM    1  C3  UNL     1     -34.251   5.047   2.230  1.00 20.00     0.017 A 
HETATM    2  C4  UNL     1     -32.880   5.419   2.719  1.00 20.00     0.009 A 
HETATM    3  C6  UNL     1     -33.899   4.845   3.695  1.00 20.00    -0.032 A 
HETATM    4  C8  UNL     1     -33.656   3.422   4.138  1.00 20.00     0.016 C 
ENDROOT
BRANCH   3   5
HETATM    5  C5  UNL     1     -34.567   5.707   4.775  1.00 20.00    -0.036 A 
HETATM    6  C1  UNL     1     -34.219   5.508   6.232  1.00 20.00     0.011 A 
HETATM    7  C2  UNL     1     -33.767   6.750   5.519  1.00 20.00     0.011 A 
HETATM    8  C7  UNL     1     -36.003   6.055   4.468  1.00 20.00     0.016 C 
ENDBRANCH   3   5
BRANCH   2   9
HETATM    9  C9  UNL     1     -32.463   6.849   2.762  1.00 20.00     0.120 C 
HETATM   10 CL10 UNL     1     -31.951   7.421   1.150  1.00 20.00    -0.130 Cl
ENDBRANCH   2   9
TORSDOF 2
