REMARK  4 active torsions:
REMARK  status: ('A' for Active; 'I' for Inactive)
REMARK    1  A    between atoms: C4_4  and  C6_6 
REMARK    2  A    between atoms: C5_5  and  C8_8 
REMARK    3  A    between atoms: C6_6  and  C9_9 
REMARK    4  A    between atoms: C9_9  and  O10_10 
ROOT
HETATM    1  C3  UNL     1     -32.100   6.322   3.193  1.00 20.00     0.019 A 
HETATM    2  C5  UNL     1     -33.277   6.820   2.403  1.00 20.00     0.011 A 
HETATM    3  C6  UNL     1     -33.471   6.366   3.849  1.00 20.00    -0.010 A 
ENDROOT
BRANCH   3   4
HETATM    4  C4  UNL     1     -34.238   5.063   4.125  1.00 20.00    -0.004 A 
HETATM    5  C1  UNL     1     -33.995   4.223   5.349  1.00 20.00     0.006 A 
HETATM    6  C2  UNL     1     -35.298   4.955   5.186  1.00 20.00     0.006 A 
ENDBRANCH   3   4
BRANCH   3   7
HETATM    7  C9  UNL     1     -33.675   7.412   4.918  1.00 20.00     0.177 C 
BRANCH   7   8
HETATM    8  O10 UNL     1     -33.117   6.947   6.139  1.00 20.00    -0.395 OA
HETATM    9  C7  UNL     1     -33.282   7.897   7.183  1.00 20.00     0.201 C 
ENDBRANCH   7   8
ENDBRANCH   3   7
BRANCH   2  10
HETATM   10  C8  UNL     1     -33.356   8.249   1.985  1.00 20.00     0.120 C 
HETATM   11 CL11 UNL     1     -32.347   8.558   0.545  1.00 20.00    -0.130 Cl
ENDBRANCH   2  10
TORSDOF 4
