REMARK  3 active torsions:
REMARK  status: ('A' for Active; 'I' for Inactive)
REMARK    1  A    between atoms: C4_4  and  C6_6 
REMARK    2  A    between atoms: C5_5  and  C8_8 
REMARK    3  A    between atoms: C6_6  and  C9_9 
ROOT
HETATM    1  C3  UNL     1     -31.776   7.026   4.423  1.00 20.00     0.017 A 
HETATM    2  C5  UNL     1     -32.419   7.896   3.381  1.00 20.00     0.009 A 
HETATM    3  C6  UNL     1     -33.289   7.028   4.281  1.00 20.00    -0.032 A 
ENDROOT
BRANCH   3   4
HETATM    4  C4  UNL     1     -34.016   5.783   3.754  1.00 20.00    -0.006 A 
HETATM    5  C1  UNL     1     -33.832   4.419   4.360  1.00 20.00     0.006 A 
HETATM    6  C2  UNL     1     -35.149   5.131   4.497  1.00 20.00     0.006 A 
ENDBRANCH   3   4
BRANCH   3   7
HETATM    7  C9  UNL     1     -34.064   7.760   5.351  1.00 20.00     0.006 C 
HETATM    8  C7  UNL     1     -33.823   7.190   6.718  1.00 20.00     0.006 C 
ENDBRANCH   3   7
BRANCH   2   9
HETATM    9  C8  UNL     1     -32.231   7.596   1.934  1.00 20.00     0.120 C 
HETATM   10 CL10 UNL     1     -32.586   9.025   0.925  1.00 20.00    -0.130 Cl
ENDBRANCH   2   9
TORSDOF 3
