REMARK  4 active torsions:
REMARK  status: ('A' for Active; 'I' for Inactive)
REMARK    1  A    between atoms: C2_2  and  C6_6 
REMARK    2  A    between atoms: C3_3  and  C7_7 
REMARK    3  A    between atoms: C7_7  and  C8_8 
REMARK    4  A    between atoms: C8_8  and  O9_9 
ROOT
HETATM    1  C1  UNL     1     -32.263   6.835   2.965  1.00 20.00     0.016 A 
HETATM    2  C2  UNL     1     -32.445   8.319   2.818  1.00 20.00     0.008 A 
HETATM    3  C3  UNL     1     -32.982   7.612   4.056  1.00 20.00    -0.037 A 
HETATM    4  C4  UNL     1     -32.251   7.847   5.352  1.00 20.00     0.015 C 
ENDROOT
BRANCH   3   5
HETATM    5  C7  UNL     1     -34.463   7.396   4.219  1.00 20.00     0.035 C 
BRANCH   5   6
HETATM    6  C8  UNL     1     -34.800   5.954   4.586  1.00 20.00     0.167 C 
BRANCH   6   7
HETATM    7  O9  UNL     1     -34.175   5.625   5.819  1.00 20.00    -0.396 OA
HETATM    8  C5  UNL     1     -34.921   6.108   6.928  1.00 20.00     0.201 C 
ENDBRANCH   6   7
ENDBRANCH   5   6
ENDBRANCH   3   5
BRANCH   2   9
HETATM    9  C6  UNL     1     -33.336   8.865   1.755  1.00 20.00     0.120 C 
HETATM   10 CL10 UNL     1     -32.510   8.897   0.173  1.00 20.00    -0.130 Cl
ENDBRANCH   2   9
TORSDOF 4
