REMARK  1 active torsions:
REMARK  status: ('A' for Active; 'I' for Inactive)
REMARK    1  A    between atoms: C6_6  and  C8_8 
ROOT
HETATM    1  C1  UNL     1     -34.292   5.007   4.896  1.00 20.00     0.027 C 
HETATM    2  C2  UNL     1     -34.281   6.002   3.737  1.00 20.00     0.014 C 
HETATM    3  C3  UNL     1     -31.870   6.908   3.387  1.00 20.00     0.018 A 
HETATM    4  C4  UNL     1     -34.395   5.735   6.230  1.00 20.00     0.167 C 
HETATM    5  C5  UNL     1     -33.359   7.687   5.368  1.00 20.00     0.177 C 
HETATM    6  C6  UNL     1     -32.786   7.982   2.865  1.00 20.00     0.011 A 
HETATM    7  C7  UNL     1     -33.248   7.075   3.993  1.00 20.00    -0.014 A 
HETATM    8  O9  UNL     1     -33.322   6.667   6.371  1.00 20.00    -0.390 OA
ENDROOT
BRANCH   6   9
HETATM    9  C8  UNL     1     -33.341   7.892   1.485  1.00 20.00     0.120 C 
HETATM   10 CL10 UNL     1     -32.150   8.441   0.273  1.00 20.00    -0.130 Cl
ENDBRANCH   6   9
TORSDOF 1
