REMARK  2 active torsions:
REMARK  status: ('A' for Active; 'I' for Inactive)
REMARK    1  A    between atoms: C6_6  and  C8_8 
REMARK    2  A    between atoms: C8_8  and  O9_9 
ROOT
HETATM    1  C1  UNL     1     -32.647   5.441   2.508  1.00 20.00     0.011 C 
HETATM    2  C2  UNL     1     -34.123   5.165   2.794  1.00 20.00     0.011 C 
HETATM    3  C3  UNL     1     -35.720   5.006   4.820  1.00 20.00     0.018 A 
HETATM    4  C4  UNL     1     -32.306   6.927   2.548  1.00 20.00     0.074 C 
HETATM    5  C5  UNL     1     -34.396   7.163   4.329  1.00 20.00     0.083 C 
HETATM    6  C6  UNL     1     -34.340   4.723   5.345  1.00 20.00     0.019 A 
HETATM    7  C7  UNL     1     -34.524   5.670   4.165  1.00 20.00    -0.026 A 
HETATM    8  S10 UNL     1     -32.660   7.661   4.174  1.00 20.00    -0.168 SA
ENDROOT
BRANCH   6   9
HETATM    9  C8  UNL     1     -33.951   5.182   6.709  1.00 20.00     0.169 C 
BRANCH   9  10
HETATM   10  O9  UNL     1     -34.471   6.490   6.948  1.00 20.00    -0.400 OA
HETATM   11  H24 UNL     1     -34.190   6.736   7.842  1.00 20.00     0.209 HD
ENDBRANCH   9  10
ENDBRANCH   6   9
TORSDOF 2
