REMARK  3 active torsions:
REMARK  status: ('A' for Active; 'I' for Inactive)
REMARK    1  A    between atoms: C2_2  and  C6_6 
REMARK    2  A    between atoms: C3_3  and  C7_7 
REMARK    3  A    between atoms: C6_6  and  O8_8 
ROOT
HETATM    1  C1  UNL     1     -32.675   7.207   5.126  1.00 20.00     0.017 A 
HETATM    2  C2  UNL     1     -34.048   7.015   4.547  1.00 20.00     0.018 A 
HETATM    3  C3  UNL     1     -32.869   7.312   3.622  1.00 20.00    -0.038 A 
HETATM    4  C4  UNL     1     -32.297   6.221   2.756  1.00 20.00     0.015 C 
ENDROOT
BRANCH   2   5
HETATM    5  C6  UNL     1     -34.708   5.680   4.606  1.00 20.00     0.169 C 
BRANCH   5   6
HETATM    6  O8  UNL     1     -35.263   5.470   5.905  1.00 20.00    -0.400 OA
HETATM    7  H22 UNL     1     -35.677   4.594   5.887  1.00 20.00     0.209 HD
ENDBRANCH   5   6
ENDBRANCH   2   5
BRANCH   3   8
HETATM    8  C7  UNL     1     -32.812   8.682   2.998  1.00 20.00     0.005 C 
HETATM    9  C5  UNL     1     -33.018   8.644   1.512  1.00 20.00     0.006 C 
ENDBRANCH   3   8
TORSDOF 3
