REMARK  2 active torsions:
REMARK  status: ('A' for Active; 'I' for Inactive)
REMARK    1  A    between atoms: C4_4  and  C7_7 
REMARK    2  A    between atoms: C6_6  and  C10_10 
ROOT
HETATM    1  C1  UNL     1     -34.686   5.893   6.190  1.00 20.00     0.015 A 
HETATM    2  C2  UNL     1     -34.493   4.642   5.646  1.00 20.00     0.051 A 
HETATM    3  C3  UNL     1     -33.938   6.895   5.507  1.00 20.00    -0.048 A 
HETATM    4  C4  UNL     1     -33.201   6.372   4.466  1.00 20.00    -0.003 A 
HETATM    5  C8  UNL     1     -33.960   8.329   5.886  1.00 20.00     0.049 C 
HETATM    6  S11 UNL     1     -33.414   4.679   4.317  1.00 20.00    -0.105 SA
ENDROOT
BRANCH   4   7
HETATM    7  C7  UNL     1     -32.279   7.199   3.527  1.00 20.00    -0.005 A 
HETATM    8  C5  UNL     1     -32.117   6.684   2.105  1.00 20.00     0.021 A 
HETATM    9  C6  UNL     1     -32.977   7.887   2.353  1.00 20.00     0.010 A 
HETATM   10  C9  UNL     1     -31.095   7.842   4.192  1.00 20.00     0.021 C 
BRANCH   9  11
HETATM   11  C10 UNL     1     -32.561   9.226   1.847  1.00 20.00     0.091 C 
HETATM   12 BR12 UNL     1     -32.942   9.382  -0.061  1.00 20.00    -0.096 Br
ENDBRANCH   9  11
ENDBRANCH   4   7
TORSDOF 2
