REMARK  2 active torsions:
REMARK  status: ('A' for Active; 'I' for Inactive)
REMARK    1  A    between atoms: C6_6  and  C7_7 
REMARK    2  A    between atoms: C8_8  and  C9_9 
ROOT
HETATM    1  C1  UNL     1     -33.320   6.982   5.602  1.00 20.00     0.031 C 
HETATM    2  C2  UNL     1     -33.795   5.362   3.746  1.00 20.00     0.031 C 
HETATM    3  C4  UNL     1     -34.629   6.530   6.237  1.00 20.00     0.168 C 
HETATM    4  C5  UNL     1     -35.078   5.000   4.486  1.00 20.00     0.168 C 
HETATM    5  C6  UNL     1     -33.362   6.794   4.081  1.00 20.00    -0.006 C 
HETATM    6  O10 UNL     1     -34.917   5.175   5.893  1.00 20.00    -0.391 OA
ENDROOT
BRANCH   5   7
HETATM    7  C7  UNL     1     -32.014   7.124   3.447  1.00 20.00    -0.005 A 
HETATM    8  C3  UNL     1     -31.668   8.548   3.131  1.00 20.00     0.011 A 
HETATM    9  C8  UNL     1     -31.893   7.562   2.014  1.00 20.00     0.004 A 
BRANCH   9  10
HETATM   10  C9  UNL     1     -33.068   7.705   1.110  1.00 20.00     0.119 C 
HETATM   11 CL11 UNL     1     -32.776   8.947  -0.139  1.00 20.00    -0.130 Cl
ENDBRANCH   9  10
ENDBRANCH   5   7
TORSDOF 2
