REMARK  3 active torsions:
REMARK  status: ('A' for Active; 'I' for Inactive)
REMARK    1  A    between atoms: C1_1  and  C9_9 
REMARK    2  A    between atoms: C5_5  and  C8_8 
REMARK    3  A    between atoms: C6_6  and  C9_9 
ROOT
HETATM    1  C2  UNL     1     -32.632   6.218   1.208  1.00 20.00     0.005 C 
HETATM    2  C3  UNL     1     -33.258   5.504   2.410  1.00 20.00     0.008 C 
HETATM    3  C4  UNL     1     -33.130   7.852   2.906  1.00 20.00     0.012 C 
HETATM    4  C5  UNL     1     -32.218   7.606   1.707  1.00 20.00    -0.014 C 
HETATM    5  C6  UNL     1     -33.157   6.484   3.582  1.00 20.00     0.030 C 
ENDROOT
BRANCH   5   6
HETATM    6  C9  UNL     1     -34.286   6.335   4.587  1.00 20.00     0.274 C 
HETATM    7  F12 UNL     1     -34.354   7.486   5.311  1.00 20.00    -0.238 F 
BRANCH   6   8
HETATM    8  C1  UNL     1     -34.129   5.209   5.605  1.00 20.00     0.208 C 
HETATM    9  O10 UNL     1     -34.571   5.434   6.765  1.00 20.00    -0.646 OA
HETATM   10  O11 UNL     1     -33.553   4.177   5.154  1.00 20.00    -0.646 OA
ENDBRANCH   6   8
ENDBRANCH   5   6
BRANCH   4  11
HETATM   11  C8  UNL     1     -32.327   8.684   0.642  1.00 20.00     0.000 C 
HETATM   12  C7  UNL     1     -31.442   8.402  -0.532  1.00 20.00     0.005 C 
ENDBRANCH   4  11
TORSDOF 3
