REMARK  3 active torsions:
REMARK  status: ('A' for Active; 'I' for Inactive)
REMARK    1  A    between atoms: C4_4  and  C6_6 
REMARK    2  A    between atoms: C5_5  and  C8_8 
REMARK    3  A    between atoms: C6_6  and  C9_9 
ROOT
HETATM    1  C3  UNL     1     -34.235   8.047   3.363  1.00 20.00     0.017 A 
HETATM    2  C5  UNL     1     -32.759   7.825   3.199  1.00 20.00     0.009 A 
HETATM    3  C6  UNL     1     -33.520   7.085   4.298  1.00 20.00    -0.032 A 
ENDROOT
BRANCH   3   4
HETATM    4  C4  UNL     1     -33.275   7.472   5.765  1.00 20.00    -0.006 A 
HETATM    5  C1  UNL     1     -34.379   7.923   6.681  1.00 20.00     0.006 A 
HETATM    6  C2  UNL     1     -33.700   6.602   6.915  1.00 20.00     0.006 A 
ENDBRANCH   3   4
BRANCH   3   7
HETATM    7  C9  UNL     1     -33.818   5.617   4.113  1.00 20.00     0.006 C 
HETATM    8  C7  UNL     1     -35.272   5.302   4.307  1.00 20.00     0.006 C 
ENDBRANCH   3   7
BRANCH   2   9
HETATM    9  C8  UNL     1     -32.229   7.145   1.983  1.00 20.00     0.120 C 
HETATM   10 CL10 UNL     1     -32.142   8.270   0.599  1.00 20.00    -0.130 Cl
ENDBRANCH   2   9
TORSDOF 3
