REMARK  1 active torsions:
REMARK  status: ('A' for Active; 'I' for Inactive)
REMARK    1  A    between atoms: C5_5  and  C10_10 
ROOT
HETATM    1  C1  UNL     1     -32.863   5.189   2.983  1.00 20.00     0.036 C 
HETATM    2  C2  UNL     1     -31.807   7.536   3.252  1.00 20.00     0.016 A 
HETATM    3  C3  UNL     1     -33.474   6.567   4.985  1.00 20.00     0.047 C 
HETATM    4  C4  UNL     1     -34.227   4.521   3.093  1.00 20.00     0.169 C 
HETATM    5  C5  UNL     1     -33.183   7.803   2.708  1.00 20.00     0.009 A 
HETATM    6  C6  UNL     1     -32.932   6.576   3.572  1.00 20.00    -0.031 A 
HETATM    7  C7  UNL     1     -34.804   5.789   5.068  1.00 20.00     0.054 C 
HETATM    8  C8  UNL     1     -35.127   5.512   6.544  1.00 20.00     0.045 C 
HETATM    9  C9  UNL     1     -35.976   6.573   4.459  1.00 20.00     0.045 C 
HETATM   10  O11 UNL     1     -34.674   4.497   4.450  1.00 20.00    -0.381 OA
ENDROOT
BRANCH   5  11
HETATM   11  C10 UNL     1     -33.440   7.722   1.242  1.00 20.00     0.120 C 
HETATM   12 CL12 UNL     1     -32.915   9.211   0.410  1.00 20.00    -0.130 Cl
ENDBRANCH   5  11
TORSDOF 1
