REMARK  1 active torsions:
REMARK  status: ('A' for Active; 'I' for Inactive)
REMARK    1  A    between atoms: C5_5  and  C9_9 
ROOT
HETATM    1  C1  UNL     1     -32.873   7.349   4.789  1.00 20.00     0.036 C 
HETATM    2  C2  UNL     1     -31.966   6.220   2.626  1.00 20.00     0.016 A 
HETATM    3  C3  UNL     1     -33.857   5.140   4.022  1.00 20.00     0.041 C 
HETATM    4  C4  UNL     1     -33.114   6.642   6.116  1.00 20.00     0.169 C 
HETATM    5  C5  UNL     1     -33.231   6.919   2.222  1.00 20.00     0.009 A 
HETATM    6  C6  UNL     1     -34.938   5.454   5.063  1.00 20.00     0.118 C 
HETATM    7  C7  UNL     1     -33.083   6.385   3.640  1.00 20.00    -0.031 A 
HETATM    8  C8  UNL     1     -36.105   6.241   4.472  1.00 20.00     0.039 C 
HETATM    9  O10 UNL     1     -34.455   6.163   6.211  1.00 20.00    -0.386 OA
ENDROOT
BRANCH   5  10
HETATM   10  C9  UNL     1     -33.205   8.375   1.906  1.00 20.00     0.120 C 
HETATM   11 CL11 UNL     1     -32.588   8.669   0.257  1.00 20.00    -0.130 Cl
ENDBRANCH   5  10
TORSDOF 1
