REMARK  3 active torsions:
REMARK  status: ('A' for Active; 'I' for Inactive)
REMARK    1  A    between atoms: C2_2  and  C6_6 
REMARK    2  A    between atoms: C3_3  and  C7_7 
REMARK    3  A    between atoms: C3_3  and  C8_8 
ROOT
HETATM    1  C1  UNL     1     -34.894   7.100   3.727  1.00 20.00     0.016 A 
HETATM    2  C2  UNL     1     -33.463   7.251   4.169  1.00 20.00     0.009 A 
HETATM    3  C3  UNL     1     -34.325   6.144   4.754  1.00 20.00    -0.036 A 
ENDROOT
BRANCH   3   4
HETATM    4  C7  UNL     1     -34.100   4.714   4.341  1.00 20.00     0.005 C 
HETATM    5  C4  UNL     1     -33.534   3.878   5.453  1.00 20.00     0.006 C 
ENDBRANCH   3   4
BRANCH   3   6
HETATM    6  C8  UNL     1     -34.768   6.304   6.186  1.00 20.00     0.005 C 
HETATM    7  C5  UNL     1     -34.426   7.655   6.743  1.00 20.00     0.006 C 
ENDBRANCH   3   6
BRANCH   2   8
HETATM    8  C6  UNL     1     -32.349   6.985   3.215  1.00 20.00     0.120 C 
HETATM    9 CL9  UNL     1     -32.087   8.373   2.124  1.00 20.00    -0.130 Cl
ENDBRANCH   2   8
TORSDOF 3
