REMARK  1 active torsions:
REMARK  status: ('A' for Active; 'I' for Inactive)
REMARK    1  A    between atoms: C5_5  and  C7_7 
ROOT
HETATM    1  C1  UNL     1     -33.516   6.637   5.255  1.00 20.00     0.020 C 
HETATM    2  C2  UNL     1     -31.797   7.180   3.392  1.00 20.00     0.017 A 
HETATM    3  C3  UNL     1     -34.809   5.858   5.394  1.00 20.00     0.075 C 
HETATM    4  C4  UNL     1     -33.243   5.025   3.369  1.00 20.00     0.083 C 
HETATM    5  C5  UNL     1     -33.136   7.619   2.872  1.00 20.00     0.005 A 
HETATM    6  C6  UNL     1     -33.043   6.444   3.837  1.00 20.00    -0.026 A 
HETATM    7  S8  UNL     1     -34.486   4.319   4.501  1.00 20.00    -0.168 SA
ENDROOT
BRANCH   5   8
HETATM    8  C7  UNL     1     -33.456   7.462   1.426  1.00 20.00     0.090 C 
HETATM    9 BR9  UNL     1     -32.692   8.932   0.395  1.00 20.00    -0.096 Br
ENDBRANCH   5   8
TORSDOF 1
