REMARK  2 active torsions:
REMARK  status: ('A' for Active; 'I' for Inactive)
REMARK    1  A    between atoms: C5_5  and  C6_6 
REMARK    2  A    between atoms: C7_7  and  C8_8 
ROOT
HETATM    1  C4  UNL     1     -31.683   7.494   3.697  1.00 20.00     0.011 A 
HETATM    2  C6  UNL     1     -33.037   6.896   3.443  1.00 20.00    -0.005 A 
HETATM    3  C7  UNL     1     -32.604   8.115   2.680  1.00 20.00     0.004 A 
ENDROOT
BRANCH   2   4
HETATM    4  C5  UNL     1     -34.152   6.928   4.468  1.00 20.00    -0.010 C 
HETATM    5  C2  UNL     1     -33.893   6.178   5.800  1.00 20.00     0.005 C 
HETATM    6  C1  UNL     1     -35.381   5.773   5.776  1.00 20.00     0.001 C 
HETATM    7  C3  UNL     1     -35.329   5.945   4.244  1.00 20.00     0.005 C 
ENDBRANCH   2   4
BRANCH   3   8
HETATM    8  C8  UNL     1     -32.295   8.010   1.227  1.00 20.00     0.119 C 
HETATM    9 CL9  UNL     1     -33.167   9.253   0.288  1.00 20.00    -0.130 Cl
ENDBRANCH   3   8
TORSDOF 2
