REMARK  1 active torsions:
REMARK  status: ('A' for Active; 'I' for Inactive)
REMARK    1  A    between atoms: C5_5  and  C7_7 
ROOT
HETATM    1  C1  UNL     1     -34.202   4.579   5.192  1.00 20.00     0.038 C 
HETATM    2  C2  UNL     1     -34.740   6.094   3.146  1.00 20.00     0.018 A 
HETATM    3  C3  UNL     1     -33.924   4.955   6.637  1.00 20.00     0.168 C 
HETATM    4  C4  UNL     1     -34.210   6.965   5.552  1.00 20.00     0.177 C 
HETATM    5  C5  UNL     1     -33.242   6.065   3.263  1.00 20.00     0.007 A 
HETATM    6  C6  UNL     1     -34.101   5.902   4.503  1.00 20.00    -0.012 A 
HETATM    7  O8  UNL     1     -34.478   6.271   6.786  1.00 20.00    -0.390 OA
ENDROOT
BRANCH   5   8
HETATM    8  C7  UNL     1     -32.456   7.302   2.997  1.00 20.00     0.090 C 
HETATM    9 BR9  UNL     1     -32.195   7.545   1.079  1.00 20.00    -0.096 Br
ENDBRANCH   5   8
TORSDOF 1
