REMARK  3 active torsions:
REMARK  status: ('A' for Active; 'I' for Inactive)
REMARK    1  A    between atoms: C1_1  and  C5_5 
REMARK    2  A    between atoms: C5_5  and  C7_7 
REMARK    3  A    between atoms: C6_6  and  C7_7 
ROOT
HETATM    1  C5  UNL     1     -34.140   6.183   4.142  1.00 20.00     0.274 C 
HETATM    2  F10 UNL     1     -34.461   4.860   4.039  1.00 20.00    -0.238 F 
ENDROOT
BRANCH   1   3
HETATM    3  C1  UNL     1     -34.130   6.450   5.648  1.00 20.00     0.208 C 
HETATM    4  O8  UNL     1     -33.422   7.433   6.007  1.00 20.00    -0.646 OA
HETATM    5  O9  UNL     1     -34.835   5.668   6.345  1.00 20.00    -0.646 OA
ENDBRANCH   1   3
BRANCH   1   6
HETATM    6  C7  UNL     1     -32.790   6.408   3.442  1.00 20.00     0.029 C 
HETATM    7  C4  UNL     1     -32.736   5.550   2.169  1.00 20.00     0.014 C 
BRANCH   6   8
HETATM    8  C6  UNL     1     -32.491   7.912   3.183  1.00 20.00    -0.016 C 
HETATM    9  C2  UNL     1     -30.991   8.170   2.991  1.00 20.00     0.010 C 
HETATM   10  C3  UNL     1     -33.268   8.509   2.007  1.00 20.00     0.010 C 
ENDBRANCH   6   8
ENDBRANCH   1   6
TORSDOF 3
