REMARK  1 active torsions:
REMARK  status: ('A' for Active; 'I' for Inactive)
REMARK    1  A    between atoms: C5_5  and  C10_10 
ROOT
HETATM    1  C1  UNL     1     -33.601   5.439   6.963  1.00 20.00     0.002 C 
HETATM    2  C2  UNL     1     -33.144   6.777   6.392  1.00 20.00     0.011 C 
HETATM    3  C3  UNL     1     -34.957   5.224   6.308  1.00 20.00     0.010 C 
HETATM    4  C4  UNL     1     -34.115   8.266   4.510  1.00 20.00     0.017 A 
HETATM    5  C5  UNL     1     -32.972   7.523   3.890  1.00 20.00     0.009 A 
HETATM    6  C6  UNL     1     -33.780   6.869   5.011  1.00 20.00    -0.028 A 
HETATM    7  C7  UNL     1     -34.750   5.684   4.839  1.00 20.00    -0.040 C 
HETATM    8  C8  UNL     1     -34.116   4.534   4.036  1.00 20.00     0.015 C 
HETATM    9  C9  UNL     1     -36.113   6.038   4.238  1.00 20.00     0.015 C 
ENDROOT
BRANCH   5  10
HETATM   10  C10 UNL     1     -33.047   7.164   2.448  1.00 20.00     0.120 C 
HETATM   11 CL11 UNL     1     -32.637   8.559   1.410  1.00 20.00    -0.130 Cl
ENDBRANCH   5  10
TORSDOF 1
