REMARK  2 active torsions:
REMARK  status: ('A' for Active; 'I' for Inactive)
REMARK    1  A    between atoms: C5_5  and  C8_8 
REMARK    2  A    between atoms: C9_9  and  C10_10 
ROOT
HETATM    1  C1  UNL     1     -33.365   4.798   3.597  1.00 20.00     0.009 A 
HETATM    2  C2  UNL     1     -33.554   6.985   4.608  1.00 20.00     0.009 A 
HETATM    3  C3  UNL     1     -34.121   4.253   4.635  1.00 20.00     0.019 A 
HETATM    4  C4  UNL     1     -34.310   6.440   5.645  1.00 20.00     0.019 A 
HETATM    5  C5  UNL     1     -33.081   6.164   3.584  1.00 20.00    -0.053 A 
HETATM    6  C6  UNL     1     -34.594   5.074   5.659  1.00 20.00     0.011 A 
HETATM    7 BR12 UNL     1     -35.618   4.336   7.065  1.00 20.00    -0.051 Br
ENDROOT
BRANCH   5   8
HETATM    8  C8  UNL     1     -32.262   6.754   2.460  1.00 20.00     0.024 A 
HETATM    9  C7  UNL     1     -31.391   7.967   2.707  1.00 20.00     0.016 A 
HETATM   10  C9  UNL     1     -32.635   8.103   1.880  1.00 20.00     0.008 A 
BRANCH  10  11
HETATM   11  C10 UNL     1     -32.538   8.337   0.412  1.00 20.00     0.119 C 
HETATM   12 CL11 UNL     1     -32.212  10.055   0.051  1.00 20.00    -0.130 Cl
ENDBRANCH  10  11
ENDBRANCH   5   8
TORSDOF 2
