REMARK  1 active torsions:
REMARK  status: ('A' for Active; 'I' for Inactive)
REMARK    1  A    between atoms: C1_1  and  C5_5 
ROOT
HETATM    1  C2  UNL     1     -33.246   7.707   4.039  1.00 20.00     0.013 C 
HETATM    2  C3  UNL     1     -33.638   6.998   5.335  1.00 20.00     0.009 C 
HETATM    3  C4  UNL     1     -33.816   4.811   4.045  1.00 20.00     0.013 C 
HETATM    4  C5  UNL     1     -32.506   6.758   3.098  1.00 20.00     0.051 C 
HETATM    5  C6  UNL     1     -33.326   5.501   2.755  1.00 20.00    -0.007 C 
HETATM    6  C7  UNL     1     -34.478   5.721   5.111  1.00 20.00    -0.047 C 
HETATM    7  C8  UNL     1     -34.457   5.748   1.750  1.00 20.00     0.011 C 
HETATM    8  C9  UNL     1     -35.924   6.089   4.731  1.00 20.00     0.015 C 
HETATM    9  C10 UNL     1     -34.548   4.937   6.440  1.00 20.00     0.015 C 
ENDROOT
BRANCH   4  10
HETATM   10  C1  UNL     1     -32.066   7.485   1.862  1.00 20.00     0.236 C 
HETATM   11  O11 UNL     1     -32.336   8.661   1.637  1.00 20.00    -0.306 OA
ENDBRANCH   4  10
TORSDOF 1
