REMARK  2 active torsions:
REMARK  status: ('A' for Active; 'I' for Inactive)
REMARK    1  A    between atoms: C6_6  and  C10_10 
REMARK    2  A    between atoms: C7_7  and  C9_9 
ROOT
HETATM    1  C1  UNL     1     -33.264   4.577   3.447  1.00 20.00     0.001 C 
HETATM    2  C2  UNL     1     -32.710   4.723   4.863  1.00 20.00     0.013 C 
HETATM    3  C3  UNL     1     -32.674   5.622   2.503  1.00 20.00     0.010 C 
HETATM    4  C4  UNL     1     -32.339   7.194   4.464  1.00 20.00     0.023 C 
HETATM    5  C5  UNL     1     -34.073   7.818   2.614  1.00 20.00     0.016 A 
HETATM    6  C6  UNL     1     -32.896   6.138   5.431  1.00 20.00     0.094 C 
HETATM    7  C7  UNL     1     -32.708   8.218   2.124  1.00 20.00     0.009 A 
HETATM    8  C8  UNL     1     -32.861   7.021   3.051  1.00 20.00    -0.035 A 
ENDROOT
BRANCH   6   9
HETATM    9  C10 UNL     1     -34.356   6.415   5.798  1.00 20.00     0.391 C 
HETATM   10  F11 UNL     1     -34.470   7.635   6.344  1.00 20.00    -0.171 F 
HETATM   11  F12 UNL     1     -35.125   6.357   4.700  1.00 20.00    -0.171 F 
HETATM   12  F13 UNL     1     -34.790   5.502   6.680  1.00 20.00    -0.171 F 
ENDBRANCH   6   9
BRANCH   7  13
HETATM   13  C9  UNL     1     -32.359   8.085   0.682  1.00 20.00     0.120 C 
HETATM   14 CL14 UNL     1     -33.023   9.440  -0.273  1.00 20.00    -0.130 Cl
ENDBRANCH   7  13
TORSDOF 2
