REMARK  1 active torsions:
REMARK  status: ('A' for Active; 'I' for Inactive)
REMARK    1  A    between atoms: C4_4  and  C8_8 
ROOT
HETATM    1  C1  UNL     1     -33.848   5.457   3.956  1.00 20.00     0.136 C 
HETATM    2  C2  UNL     1     -34.109   5.288   5.464  1.00 20.00     0.084 C 
HETATM    3  C3  UNL     1     -33.590   6.741   5.650  1.00 20.00     0.004 C 
HETATM    4  C4  UNL     1     -33.711   7.007   4.096  1.00 20.00     0.020 C 
HETATM    5  C5  UNL     1     -34.386   7.604   6.614  1.00 20.00     0.011 C 
HETATM    6  C6  UNL     1     -34.944   7.755   3.597  1.00 20.00     0.024 C 
HETATM    7  O9  UNL     1     -33.784   4.682   3.026  1.00 20.00    -0.297 OA
ENDROOT
BRANCH   4   8
HETATM    8  C8  UNL     1     -32.430   7.568   3.482  1.00 20.00     0.013 C 
HETATM    9  C7  UNL     1     -32.345   7.277   2.020  1.00 20.00     0.006 C 
ENDBRANCH   4   8
TORSDOF 1
