REMARK  1 active torsions:
REMARK  status: ('A' for Active; 'I' for Inactive)
REMARK    1  A    between atoms: C5_5  and  C10_10 
ROOT
HETATM    1  C1  UNL     1     -32.707   8.112   5.654  1.00 20.00     0.036 C 
HETATM    2  C2  UNL     1     -31.243   7.760   3.563  1.00 20.00     0.016 A 
HETATM    3  C3  UNL     1     -32.807   5.906   4.463  1.00 20.00     0.047 C 
HETATM    4  C4  UNL     1     -34.114   7.838   6.162  1.00 20.00     0.169 C 
HETATM    5  C5  UNL     1     -32.599   8.148   3.044  1.00 20.00     0.009 A 
HETATM    6  C6  UNL     1     -32.477   7.378   4.353  1.00 20.00    -0.031 A 
HETATM    7  C7  UNL     1     -34.199   5.677   5.089  1.00 20.00     0.054 C 
HETATM    8  C8  UNL     1     -35.342   5.993   4.114  1.00 20.00     0.045 C 
HETATM    9  C9  UNL     1     -34.320   4.203   5.505  1.00 20.00     0.045 C 
HETATM   10  O11 UNL     1     -34.339   6.435   6.303  1.00 20.00    -0.381 OA
ENDROOT
BRANCH   5  11
HETATM   11  C10 UNL     1     -33.083   7.555   1.765  1.00 20.00     0.120 C 
HETATM   12 CL12 UNL     1     -32.382   8.397   0.356  1.00 20.00    -0.130 Cl
ENDBRANCH   5  11
TORSDOF 1
