REMARK  1 active torsions:
REMARK  status: ('A' for Active; 'I' for Inactive)
REMARK    1  A    between atoms: C5_5  and  C10_10 
ROOT
HETATM    1  C1  UNL     1     -34.244   4.959   5.847  1.00 20.00     0.019 C 
HETATM    2  C2  UNL     1     -31.786   6.878   3.676  1.00 20.00     0.017 A 
HETATM    3  C3  UNL     1     -35.066   5.888   6.741  1.00 20.00     0.075 C 
HETATM    4  C4  UNL     1     -32.960   7.412   5.864  1.00 20.00     0.084 C 
HETATM    5  C5  UNL     1     -32.929   7.763   3.297  1.00 20.00     0.006 A 
HETATM    6  C6  UNL     1     -33.083   6.787   4.479  1.00 20.00    -0.020 A 
HETATM    7  C7  UNL     1     -33.967   5.491   4.405  1.00 20.00    -0.038 C 
HETATM    8  C8  UNL     1     -35.327   5.751   3.721  1.00 20.00     0.015 C 
HETATM    9  C9  UNL     1     -33.267   4.336   3.657  1.00 20.00     0.015 C 
HETATM   10  S11 UNL     1     -34.559   7.628   6.661  1.00 20.00    -0.168 SA
ENDROOT
BRANCH   5  11
HETATM   11  C10 UNL     1     -33.505   7.622   1.933  1.00 20.00     0.090 C 
HETATM   12 BR12 UNL     1     -32.430   8.601   0.629  1.00 20.00    -0.096 Br
ENDBRANCH   5  11
TORSDOF 1
