REMARK  1 active torsions:
REMARK  status: ('A' for Active; 'I' for Inactive)
REMARK    1  A    between atoms: C4_4  and  C8_8 
ROOT
HETATM    1  C1  UNL     1     -34.295   7.725   2.951  1.00 20.00     0.017 A 
HETATM    2  C2  UNL     1     -33.560   6.831   5.279  1.00 20.00     0.025 C 
HETATM    3  C3  UNL     1     -33.310   5.343   3.298  1.00 20.00     0.084 C 
HETATM    4  C4  UNL     1     -32.806   7.908   3.037  1.00 20.00     0.009 A 
HETATM    5  C5  UNL     1     -34.481   5.697   5.711  1.00 20.00     0.044 C 
HETATM    6  C6  UNL     1     -33.468   6.761   3.778  1.00 20.00    -0.026 A 
HETATM    7  C7  UNL     1     -34.325   5.335   7.177  1.00 20.00     0.021 C 
HETATM    8  S9  UNL     1     -34.010   4.313   4.628  1.00 20.00    -0.164 SA
ENDROOT
BRANCH   4   9
HETATM    9  C8  UNL     1     -31.958   7.689   1.831  1.00 20.00     0.120 C 
HETATM   10 CL10 UNL     1     -32.004   9.104   0.743  1.00 20.00    -0.130 Cl
ENDBRANCH   4   9
TORSDOF 1
