REMARK  1 active torsions:
REMARK  status: ('A' for Active; 'I' for Inactive)
REMARK    1  A    between atoms: C7_7  and  C11_11 
ROOT
HETATM    1  C1  UNL     1     -34.693   4.663   4.836  1.00 20.00     0.005 C 
HETATM    2  C2  UNL     1     -34.486   5.417   3.522  1.00 20.00     0.010 C 
HETATM    3  C3  UNL     1     -33.105   7.221   4.651  1.00 20.00     0.014 C 
HETATM    4  C4  UNL     1     -31.926   5.442   3.157  1.00 20.00     0.016 A 
HETATM    5  C5  UNL     1     -34.174   5.420   6.080  1.00 20.00    -0.015 C 
HETATM    6  C6  UNL     1     -34.087   6.940   5.810  1.00 20.00    -0.014 C 
HETATM    7  C7  UNL     1     -32.505   6.455   2.211  1.00 20.00     0.009 A 
HETATM    8  C8  UNL     1     -33.191   6.187   3.543  1.00 20.00    -0.035 A 
HETATM    9  C9  UNL     1     -35.031   5.060   7.295  1.00 20.00     0.010 C 
HETATM   10  C10 UNL     1     -33.669   7.753   7.037  1.00 20.00     0.010 C 
ENDROOT
BRANCH   7  11
HETATM   11  C11 UNL     1     -31.760   7.715   1.929  1.00 20.00     0.120 C 
HETATM   12 CL12 UNL     1     -32.841   8.971   1.267  1.00 20.00    -0.130 Cl
ENDBRANCH   7  11
TORSDOF 1
