REMARK  2 active torsions:
REMARK  status: ('A' for Active; 'I' for Inactive)
REMARK    1  A    between atoms: C5_5  and  C6_6 
REMARK    2  A    between atoms: C7_7  and  C8_8 
ROOT
HETATM    1  C4  UNL     1     -33.076   5.078   2.172  1.00 20.00     0.011 A 
HETATM    2  C6  UNL     1     -33.203   5.978   3.366  1.00 20.00    -0.005 A 
HETATM    3  C7  UNL     1     -33.191   6.568   1.985  1.00 20.00     0.004 A 
ENDROOT
BRANCH   2   4
HETATM    4  C5  UNL     1     -34.437   5.996   4.255  1.00 20.00    -0.010 C 
HETATM    5  C2  UNL     1     -34.429   7.030   5.409  1.00 20.00     0.005 C 
HETATM    6  C1  UNL     1     -33.914   5.911   6.336  1.00 20.00     0.001 C 
HETATM    7  C3  UNL     1     -34.508   4.894   5.342  1.00 20.00     0.005 C 
ENDBRANCH   2   4
BRANCH   3   8
HETATM    8  C8  UNL     1     -32.016   7.359   1.525  1.00 20.00     0.119 C 
HETATM    9 CL9  UNL     1     -32.522   8.925   0.831  1.00 20.00    -0.130 Cl
ENDBRANCH   3   8
TORSDOF 2
