REMARK  2 active torsions:
REMARK  status: ('A' for Active; 'I' for Inactive)
REMARK    1  A    between atoms: C2_2  and  C6_6 
REMARK    2  A    between atoms: C7_7  and  C10_10 
ROOT
HETATM    1  C1  UNL     1     -32.397   8.498   2.002  1.00 20.00     0.022 A 
HETATM    2  C2  UNL     1     -32.495   7.318   2.793  1.00 20.00    -0.040 A 
HETATM    3  C3  UNL     1     -32.472   8.225   0.654  1.00 20.00    -0.020 A 
HETATM    4  C4  UNL     1     -32.642   6.187   2.020  1.00 20.00    -0.014 A 
HETATM    5  C8  UNL     1     -32.410   9.171  -0.482  1.00 20.00     0.056 C 
HETATM    6  C9  UNL     1     -32.777   4.777   2.451  1.00 20.00     0.057 C 
HETATM    7  S11 UNL     1     -32.660   6.551   0.347  1.00 20.00    -0.100 SA
ENDROOT
BRANCH   2   8
HETATM    8  C6  UNL     1     -32.442   7.318   4.304  1.00 20.00     0.025 A 
HETATM    9  C5  UNL     1     -32.828   8.559   5.079  1.00 20.00     0.016 A 
HETATM   10  C7  UNL     1     -33.727   7.359   5.104  1.00 20.00     0.008 A 
BRANCH  10  11
HETATM   11  C10 UNL     1     -33.859   6.547   6.347  1.00 20.00     0.119 C 
HETATM   12 CL12 UNL     1     -34.497   4.918   5.991  1.00 20.00    -0.130 Cl
ENDBRANCH  10  11
ENDBRANCH   2   8
TORSDOF 2
