REMARK  2 active torsions:
REMARK  status: ('A' for Active; 'I' for Inactive)
REMARK    1  A    between atoms: C4_4  and  C9_9 
REMARK    2  A    between atoms: C5_5  and  C6_6 
ROOT
HETATM    1  C3  UNL     1     -32.270   6.004   2.697  1.00 20.00     0.017 A 
HETATM    2  C4  UNL     1     -33.237   7.078   2.288  1.00 20.00     0.009 A 
HETATM    3  C6  UNL     1     -33.199   6.605   3.741  1.00 20.00    -0.032 A 
HETATM    4  C8  UNL     1     -32.562   7.497   4.778  1.00 20.00     0.016 C 
ENDROOT
BRANCH   3   5
HETATM    5  C5  UNL     1     -34.376   5.785   4.290  1.00 20.00    -0.036 A 
HETATM    6  C1  UNL     1     -34.283   4.279   4.375  1.00 20.00     0.011 A 
HETATM    7  C2  UNL     1     -34.267   5.100   5.633  1.00 20.00     0.011 A 
HETATM    8  C7  UNL     1     -35.727   6.356   3.936  1.00 20.00     0.016 C 
ENDBRANCH   3   5
BRANCH   2   9
HETATM    9  C9  UNL     1     -32.743   8.417   1.859  1.00 20.00     0.120 C 
HETATM   10 CL10 UNL     1     -32.172   8.383   0.168  1.00 20.00    -0.130 Cl
ENDBRANCH   2   9
TORSDOF 2
