REMARK  3 active torsions:
REMARK  status: ('A' for Active; 'I' for Inactive)
REMARK    1  A    between atoms: C4_4  and  C6_6 
REMARK    2  A    between atoms: C5_5  and  C8_8 
REMARK    3  A    between atoms: C6_6  and  C9_9 
ROOT
HETATM    1  C3  UNL     1     -32.051   6.977   3.678  1.00 20.00     0.017 A 
HETATM    2  C5  UNL     1     -33.026   7.872   2.969  1.00 20.00     0.009 A 
HETATM    3  C6  UNL     1     -33.534   6.859   3.987  1.00 20.00    -0.032 A 
ENDROOT
BRANCH   3   4
HETATM    4  C4  UNL     1     -34.086   7.363   5.330  1.00 20.00    -0.006 A 
HETATM    5  C1  UNL     1     -34.911   6.499   6.243  1.00 20.00     0.006 A 
HETATM    6  C2  UNL     1     -33.527   6.919   6.654  1.00 20.00     0.006 A 
ENDBRANCH   3   4
BRANCH   3   7
HETATM    7  C9  UNL     1     -34.231   5.616   3.490  1.00 20.00     0.006 C 
HETATM    8  C7  UNL     1     -33.638   4.363   4.063  1.00 20.00     0.006 C 
ENDBRANCH   3   7
BRANCH   2   9
HETATM    9  C8  UNL     1     -33.252   7.730   1.502  1.00 20.00     0.120 C 
HETATM   10 CL10 UNL     1     -31.964   8.540   0.568  1.00 20.00    -0.130 Cl
ENDBRANCH   2   9
TORSDOF 3
