REMARK  1 active torsions:
REMARK  status: ('A' for Active; 'I' for Inactive)
REMARK    1  A    between atoms: C1_1  and  C5_5 
ROOT
HETATM    1  C2  UNL     1     -33.132   7.886   4.320  1.00 20.00     0.013 C 
HETATM    2  C3  UNL     1     -33.379   7.060   5.580  1.00 20.00     0.009 C 
HETATM    3  C4  UNL     1     -33.709   4.996   4.166  1.00 20.00     0.013 C 
HETATM    4  C5  UNL     1     -32.575   7.037   3.175  1.00 20.00     0.059 C 
HETATM    5  C6  UNL     1     -33.455   5.808   2.882  1.00 20.00    -0.007 C 
HETATM    6  C7  UNL     1     -34.279   5.831   5.334  1.00 20.00    -0.047 C 
HETATM    7  C9  UNL     1     -32.817   4.900   1.824  1.00 20.00     0.011 C 
HETATM    8  C10 UNL     1     -34.297   4.963   6.607  1.00 20.00     0.015 C 
HETATM    9  C11 UNL     1     -35.728   6.265   5.038  1.00 20.00     0.015 C 
ENDROOT
BRANCH   4  10
HETATM   10  C1  UNL     1     -32.469   7.917   1.964  1.00 20.00     0.127 C 
HETATM   11  C8  UNL     1     -31.196   8.705   1.809  1.00 20.00     0.091 C 
HETATM   12  O12 UNL     1     -33.377   7.990   1.138  1.00 20.00    -0.298 OA
ENDBRANCH   4  10
TORSDOF 1
