REMARK  3 active torsions:
REMARK  status: ('A' for Active; 'I' for Inactive)
REMARK    1  A    between atoms: C2_2  and  C7_7 
REMARK    2  A    between atoms: C3_3  and  C9_9 
REMARK    3  A    between atoms: C8_8  and  C9_9 
ROOT
HETATM    1  C1  UNL     1     -33.701   4.369   3.749  1.00 20.00     0.016 A 
HETATM    2  C2  UNL     1     -33.516   5.606   2.918  1.00 20.00     0.009 A 
HETATM    3  C3  UNL     1     -34.305   5.681   4.224  1.00 20.00    -0.036 A 
HETATM    4  C4  UNL     1     -35.798   5.849   4.118  1.00 20.00     0.016 C 
ENDROOT
BRANCH   3   5
HETATM    5  C9  UNL     1     -33.699   6.343   5.433  1.00 20.00    -0.010 C 
HETATM    6  C6  UNL     1     -33.799   7.874   5.318  1.00 20.00     0.011 C 
BRANCH   5   7
HETATM    7  C8  UNL     1     -34.349   5.896   6.764  1.00 20.00     0.000 C 
HETATM    8  C5  UNL     1     -34.207   4.404   7.029  1.00 20.00     0.005 C 
ENDBRANCH   5   7
ENDBRANCH   3   5
BRANCH   2   9
HETATM    9  C7  UNL     1     -32.163   6.209   2.759  1.00 20.00     0.120 C 
HETATM   10 CL10 UNL     1     -32.218   7.659   1.718  1.00 20.00    -0.130 Cl
ENDBRANCH   2   9
TORSDOF 3
