REMARK  1 active torsions:
REMARK  status: ('A' for Active; 'I' for Inactive)
REMARK    1  A    between atoms: C4_4  and  C10_10 
ROOT
HETATM    1  C1  UNL     1     -32.044   7.615   4.668  1.00 20.00     0.007 C 
HETATM    2  C2  UNL     1     -33.075   7.451   5.791  1.00 20.00     0.009 C 
HETATM    3  C3  UNL     1     -33.712   5.433   4.386  1.00 20.00     0.013 C 
HETATM    4  C4  UNL     1     -32.685   7.523   3.281  1.00 20.00     0.003 C 
HETATM    5  C5  UNL     1     -33.350   6.136   3.058  1.00 20.00    -0.013 C 
HETATM    6  C6  UNL     1     -34.165   6.385   5.511  1.00 20.00    -0.047 C 
HETATM    7  C7  UNL     1     -32.535   5.162   2.198  1.00 20.00     0.010 C 
HETATM    8  C8  UNL     1     -34.407   5.562   6.792  1.00 20.00     0.015 C 
HETATM    9  C9  UNL     1     -35.500   7.061   5.139  1.00 20.00     0.015 C 
ENDROOT
BRANCH   4  10
HETATM   10  C10 UNL     1     -31.688   7.939   2.198  1.00 20.00     0.119 C 
HETATM   11 CL11 UNL     1     -32.553   8.372   0.716  1.00 20.00    -0.130 Cl
ENDBRANCH   4  10
TORSDOF 1
