REMARK  1 active torsions:
REMARK  status: ('A' for Active; 'I' for Inactive)
REMARK    1  A    between atoms: C6_6  and  C8_8 
ROOT
HETATM    1  C1  UNL     1     -33.278   6.856   6.691  1.00 20.00     0.027 C 
HETATM    2  C2  UNL     1     -32.967   7.352   5.280  1.00 20.00     0.014 C 
HETATM    3  C3  UNL     1     -32.317   5.340   3.769  1.00 20.00     0.018 A 
HETATM    4  C4  UNL     1     -34.714   6.353   6.781  1.00 20.00     0.167 C 
HETATM    5  C5  UNL     1     -34.776   5.793   4.477  1.00 20.00     0.177 C 
HETATM    6  C6  UNL     1     -32.868   6.385   2.837  1.00 20.00     0.011 A 
HETATM    7  C7  UNL     1     -33.372   6.305   4.267  1.00 20.00    -0.014 A 
HETATM    8  O9  UNL     1     -34.939   5.322   5.818  1.00 20.00    -0.390 OA
ENDROOT
BRANCH   6   9
HETATM    9  C8  UNL     1     -31.998   7.494   2.352  1.00 20.00     0.120 C 
HETATM   10 CL10 UNL     1     -32.972   8.866   1.754  1.00 20.00    -0.130 Cl
ENDBRANCH   6   9
TORSDOF 1
