REMARK  2 active torsions:
REMARK  status: ('A' for Active; 'I' for Inactive)
REMARK    1  A    between atoms: C1_1  and  C11_11 
REMARK    2  A    between atoms: C5_5  and  C11_11 
ROOT
HETATM    1  C2  UNL     1     -33.171   7.821   4.176  1.00 20.00     0.006 C 
HETATM    2  C3  UNL     1     -33.647   7.073   5.419  1.00 20.00     0.009 C 
HETATM    3  C4  UNL     1     -33.760   4.934   4.086  1.00 20.00     0.013 C 
HETATM    4  C5  UNL     1     -32.419   6.903   3.200  1.00 20.00    -0.001 C 
HETATM    5  C6  UNL     1     -33.279   5.673   2.822  1.00 20.00    -0.013 C 
HETATM    6  C7  UNL     1     -34.507   5.835   5.094  1.00 20.00    -0.047 C 
HETATM    7  C8  UNL     1     -32.523   4.689   1.921  1.00 20.00     0.010 C 
HETATM    8  C9  UNL     1     -34.748   5.040   6.392  1.00 20.00     0.015 C 
HETATM    9  C10 UNL     1     -35.880   6.255   4.536  1.00 20.00     0.015 C 
ENDROOT
BRANCH   4  10
HETATM   10  C11 UNL     1     -31.986   7.714   1.975  1.00 20.00     0.118 C 
BRANCH  10  11
HETATM   11  C1  UNL     1     -33.132   8.287   1.148  1.00 20.00     0.172 C 
HETATM   12  O12 UNL     1     -33.933   7.464   0.627  1.00 20.00    -0.648 OA
HETATM   13  O13 UNL     1     -33.131   9.551   1.090  1.00 20.00    -0.648 OA
ENDBRANCH  10  11
ENDBRANCH   4  10
TORSDOF 2
