REMARK  2 active torsions:
REMARK  status: ('A' for Active; 'I' for Inactive)
REMARK    1  A    between atoms: C4_4  and  C8_8 
REMARK    2  A    between atoms: C8_8  and  O9_9 
ROOT
HETATM    1  C1  UNL     1     -32.691   5.554   5.992  1.00 20.00     0.018 A 
HETATM    2  C2  UNL     1     -34.046   5.787   3.780  1.00 20.00     0.025 C 
HETATM    3  C3  UNL     1     -32.260   7.469   4.285  1.00 20.00     0.084 C 
HETATM    4  C4  UNL     1     -33.715   6.620   6.253  1.00 20.00     0.019 A 
HETATM    5  C5  UNL     1     -33.213   5.680   2.508  1.00 20.00     0.044 C 
HETATM    6  C6  UNL     1     -33.182   6.416   4.845  1.00 20.00    -0.025 A 
HETATM    7  C7  UNL     1     -32.260   4.490   2.519  1.00 20.00     0.021 C 
HETATM    8  S10 UNL     1     -32.276   7.235   2.482  1.00 20.00    -0.164 SA
ENDROOT
BRANCH   4   9
HETATM    9  C8  UNL     1     -35.104   6.245   6.641  1.00 20.00     0.169 C 
BRANCH   9  10
HETATM   10  O9  UNL     1     -35.535   5.119   5.877  1.00 20.00    -0.400 OA
HETATM   11  H24 UNL     1     -36.437   4.919   6.168  1.00 20.00     0.209 HD
ENDBRANCH   9  10
ENDBRANCH   4   9
TORSDOF 2
