REMARK  2 active torsions:
REMARK  status: ('A' for Active; 'I' for Inactive)
REMARK    1  A    between atoms: C5_5  and  C6_6 
REMARK    2  A    between atoms: C7_7  and  C8_8 
ROOT
HETATM    1  C4  UNL     1     -32.767   5.489   3.146  1.00 20.00     0.011 A 
HETATM    2  C6  UNL     1     -33.867   6.483   3.378  1.00 20.00    -0.005 A 
HETATM    3  C7  UNL     1     -32.517   6.958   2.924  1.00 20.00     0.000 A 
ENDROOT
BRANCH   2   4
HETATM    4  C5  UNL     1     -34.419   6.788   4.754  1.00 20.00    -0.010 C 
HETATM    5  C2  UNL     1     -33.400   6.813   5.923  1.00 20.00     0.005 C 
HETATM    6  C1  UNL     1     -34.499   6.178   6.799  1.00 20.00     0.001 C 
HETATM    7  C3  UNL     1     -35.112   5.617   5.499  1.00 20.00     0.005 C 
ENDBRANCH   2   4
BRANCH   3   8
HETATM    8  C8  UNL     1     -32.340   7.488   1.543  1.00 20.00     0.090 C 
HETATM    9 BR9  UNL     1     -32.712   9.404   1.495  1.00 20.00    -0.096 Br
ENDBRANCH   3   8
TORSDOF 2
