REMARK  2 active torsions:
REMARK  status: ('A' for Active; 'I' for Inactive)
REMARK    1  A    between atoms: C3_3  and  C9_9 
REMARK    2  A    between atoms: C4_4  and  C10_10 
ROOT
HETATM    1  C1  UNL     1     -34.060   5.337   4.140  1.00 20.00     0.131 C 
HETATM    2  C2  UNL     1     -33.300   5.556   2.819  1.00 20.00     0.084 C 
HETATM    3  C3  UNL     1     -34.051   6.850   4.463  1.00 20.00     0.060 C 
HETATM    4  C4  UNL     1     -33.619   7.069   2.971  1.00 20.00     0.011 C 
HETATM    5  O11 UNL     1     -34.492   4.356   4.707  1.00 20.00    -0.298 OA
ENDROOT
BRANCH   4   6
HETATM    6  C10 UNL     1     -32.472   8.015   2.666  1.00 20.00    -0.047 C 
HETATM    7  C6  UNL     1     -32.880   9.465   2.992  1.00 20.00     0.015 C 
HETATM    8  C7  UNL     1     -32.095   7.927   1.174  1.00 20.00     0.015 C 
HETATM    9  C8  UNL     1     -31.239   7.642   3.513  1.00 20.00     0.015 C 
ENDBRANCH   4   6
BRANCH   3  10
HETATM   10  C9  UNL     1     -33.110   7.244   5.588  1.00 20.00     0.008 C 
HETATM   11  C5  UNL     1     -33.556   6.701   6.909  1.00 20.00     0.006 C 
ENDBRANCH   3  10
TORSDOF 2
