REMARK  1 active torsions:
REMARK  status: ('A' for Active; 'I' for Inactive)
REMARK    1  A    between atoms: C4_4  and  C10_10 
ROOT
HETATM    1  C1  UNL     1     -33.167   6.011   2.648  1.00 20.00     0.007 C 
HETATM    2  C2  UNL     1     -33.483   5.025   3.774  1.00 20.00     0.009 C 
HETATM    3  C3  UNL     1     -33.528   6.880   5.514  1.00 20.00     0.013 C 
HETATM    4  C4  UNL     1     -32.857   7.443   3.128  1.00 20.00     0.003 C 
HETATM    5  C5  UNL     1     -32.415   7.450   4.605  1.00 20.00    -0.013 C 
HETATM    6  C6  UNL     1     -34.275   5.648   4.938  1.00 20.00    -0.047 C 
HETATM    7  C7  UNL     1     -32.012   8.838   5.111  1.00 20.00     0.010 C 
HETATM    8  C8  UNL     1     -35.686   6.054   4.465  1.00 20.00     0.015 C 
HETATM    9  C9  UNL     1     -34.445   4.590   6.047  1.00 20.00     0.015 C 
ENDROOT
BRANCH   4  10
HETATM   10  C10 UNL     1     -31.842   8.091   2.182  1.00 20.00     0.119 C 
HETATM   11 CL11 UNL     1     -32.497   8.148   0.538  1.00 20.00    -0.130 Cl
ENDBRANCH   4  10
TORSDOF 1
