REMARK  1 active torsions:
REMARK  status: ('A' for Active; 'I' for Inactive)
REMARK    1  A    between atoms: C4_4  and  C10_10 
ROOT
HETATM    1  C1  UNL     1     -33.124   7.651   3.635  1.00 20.00     0.006 C 
HETATM    2  C2  UNL     1     -33.321   6.888   4.946  1.00 20.00     0.009 C 
HETATM    3  C3  UNL     1     -33.749   4.701   3.721  1.00 20.00     0.013 C 
HETATM    4  C4  UNL     1     -33.081   6.756   2.381  1.00 20.00    -0.001 C 
HETATM    5  C5  UNL     1     -32.710   5.305   2.748  1.00 20.00    -0.013 C 
HETATM    6  C6  UNL     1     -34.255   5.671   4.821  1.00 20.00    -0.047 C 
HETATM    7  C7  UNL     1     -32.569   4.388   1.529  1.00 20.00     0.010 C 
HETATM    8  C8  UNL     1     -35.692   6.134   4.504  1.00 20.00     0.015 C 
HETATM    9  C9  UNL     1     -34.295   4.932   6.174  1.00 20.00     0.015 C 
ENDROOT
BRANCH   4  10
HETATM   10  C10 UNL     1     -32.151   7.380   1.337  1.00 20.00     0.090 C 
HETATM   11 BR11 UNL     1     -32.842   9.116   0.821  1.00 20.00    -0.096 Br
ENDBRANCH   4  10
TORSDOF 1
