REMARK  1 active torsions:
REMARK  status: ('A' for Active; 'I' for Inactive)
REMARK    1  A    between atoms: C5_5  and  C10_10 
ROOT
HETATM    1  C1  UNL     1     -34.065   5.689   5.907  1.00 20.00     0.019 C 
HETATM    2  C2  UNL     1     -31.866   7.192   3.670  1.00 20.00     0.018 A 
HETATM    3  C3  UNL     1     -34.327   4.300   5.340  1.00 20.00     0.075 C 
HETATM    4  C4  UNL     1     -33.501   5.332   2.943  1.00 20.00     0.084 C 
HETATM    5  C5  UNL     1     -32.910   7.870   2.829  1.00 20.00     0.010 A 
HETATM    6  C6  UNL     1     -33.288   6.648   3.673  1.00 20.00    -0.020 A 
HETATM    7  C7  UNL     1     -34.219   6.868   4.907  1.00 20.00    -0.038 C 
HETATM    8  C8  UNL     1     -33.906   8.154   5.714  1.00 20.00     0.015 C 
HETATM    9  C9  UNL     1     -35.685   6.996   4.434  1.00 20.00     0.015 C 
HETATM   10  S11 UNL     1     -33.166   3.915   4.009  1.00 20.00    -0.168 SA
ENDROOT
BRANCH   5  11
HETATM   11  C10 UNL     1     -32.814   7.835   1.341  1.00 20.00     0.120 C 
HETATM   12 CL12 UNL     1     -31.659   9.056   0.740  1.00 20.00    -0.130 Cl
ENDBRANCH   5  11
TORSDOF 1
