REMARK  1 active torsions:
REMARK  status: ('A' for Active; 'I' for Inactive)
REMARK    1  A    between atoms: C4_4  and  C10_10 
ROOT
HETATM    1  C1  UNL     1     -32.718   5.159   2.944  1.00 20.00     0.006 C 
HETATM    2  C2  UNL     1     -33.719   4.517   3.912  1.00 20.00     0.009 C 
HETATM    3  C3  UNL     1     -33.065   6.531   5.314  1.00 20.00     0.013 C 
HETATM    4  C4  UNL     1     -32.991   6.652   2.741  1.00 20.00    -0.001 C 
HETATM    5  C5  UNL     1     -32.864   7.435   4.077  1.00 20.00    -0.013 C 
HETATM    6  C6  UNL     1     -34.101   5.406   5.123  1.00 20.00    -0.047 C 
HETATM    7  C7  UNL     1     -31.550   8.208   4.247  1.00 20.00     0.010 C 
HETATM    8  C8  UNL     1     -35.512   5.999   4.934  1.00 20.00     0.015 C 
HETATM    9  C9  UNL     1     -34.134   4.538   6.397  1.00 20.00     0.015 C 
ENDROOT
BRANCH   4  10
HETATM   10  C10 UNL     1     -32.147   7.202   1.590  1.00 20.00     0.090 C 
HETATM   11 BR11 UNL     1     -32.965   8.825   0.918  1.00 20.00    -0.096 Br
ENDBRANCH   4  10
TORSDOF 1
