REMARK  3 active torsions:
REMARK  status: ('A' for Active; 'I' for Inactive)
REMARK    1  A    between atoms: C3_3  and  O10_10 
REMARK    2  A    between atoms: C4_4  and  C8_8 
REMARK    3  A    between atoms: C4_4  and  C9_9 
ROOT
HETATM    1  C1  UNL     1     -34.841   5.902   6.924  1.00 20.00     0.037 C 
HETATM    2  C2  UNL     1     -33.457   6.544   6.662  1.00 20.00    -0.005 C 
HETATM    3  C3  UNL     1     -35.251   6.265   5.482  1.00 20.00     0.127 C 
HETATM    4  C4  UNL     1     -33.732   6.370   5.124  1.00 20.00    -0.012 C 
HETATM    5  C5  UNL     1     -33.294   7.944   7.240  1.00 20.00     0.011 C 
ENDROOT
BRANCH   4   6
HETATM    6  C8  UNL     1     -33.405   7.556   4.220  1.00 20.00     0.008 C 
HETATM    7  C6  UNL     1     -31.959   7.924   4.294  1.00 20.00     0.006 C 
ENDBRANCH   4   6
BRANCH   4   8
HETATM    8  C9  UNL     1     -33.108   5.085   4.564  1.00 20.00     0.008 C 
HETATM    9  C7  UNL     1     -33.381   4.938   3.105  1.00 20.00     0.006 C 
ENDBRANCH   4   8
BRANCH   3  10
HETATM   10  O10 UNL     1     -36.019   5.275   4.775  1.00 20.00    -0.395 OA
HETATM   11  H28 UNL     1     -36.823   5.145   5.294  1.00 20.00     0.210 HD
ENDBRANCH   3  10
TORSDOF 3
