REMARK  1 active torsions:
REMARK  status: ('A' for Active; 'I' for Inactive)
REMARK    1  A    between atoms: C6_6  and  C8_8 
ROOT
HETATM    1  C1  UNL     1     -33.057   7.455   5.409  1.00 20.00     0.036 C 
HETATM    2  C2  UNL     1     -33.658   5.612   3.821  1.00 20.00     0.036 C 
HETATM    3  C3  UNL     1     -31.630   7.135   3.262  1.00 20.00     0.016 A 
HETATM    4  C4  UNL     1     -34.529   7.497   5.808  1.00 20.00     0.168 C 
HETATM    5  C5  UNL     1     -35.097   5.755   4.307  1.00 20.00     0.168 C 
HETATM    6  C6  UNL     1     -32.840   7.939   2.865  1.00 20.00     0.009 A 
HETATM    7  C7  UNL     1     -32.935   6.928   3.997  1.00 20.00    -0.032 A 
HETATM    8  O9  UNL     1     -35.122   6.203   5.667  1.00 20.00    -0.391 OA
ENDROOT
BRANCH   6   9
HETATM    9  C8  UNL     1     -33.477   7.728   1.535  1.00 20.00     0.120 C 
HETATM   10 CL10 UNL     1     -32.589   8.590   0.249  1.00 20.00    -0.130 Cl
ENDBRANCH   6   9
TORSDOF 1
