REMARK  2 active torsions:
REMARK  status: ('A' for Active; 'I' for Inactive)
REMARK    1  A    between atoms: C2_2  and  C6_6 
REMARK    2  A    between atoms: C3_3  and  C7_7 
ROOT
HETATM    1  C1  UNL     1     -33.570   5.047   3.706  1.00 20.00     0.011 A 
HETATM    2  C2  UNL     1     -33.875   6.502   3.461  1.00 20.00     0.004 A 
HETATM    3  C3  UNL     1     -34.337   5.835   4.736  1.00 20.00    -0.006 A 
ENDROOT
BRANCH   3   4
HETATM    4  C7  UNL     1     -33.727   6.134   6.061  1.00 20.00    -0.018 C 
HETATM    5  C4  UNL     1     -34.396   7.342   6.743  1.00 20.00     0.010 C 
HETATM    6  C5  UNL     1     -33.790   4.920   7.009  1.00 20.00     0.010 C 
ENDBRANCH   3   4
BRANCH   2   7
HETATM    7  C6  UNL     1     -32.776   7.507   3.438  1.00 20.00     0.119 C 
HETATM    8 CL8  UNL     1     -31.919   7.493   1.871  1.00 20.00    -0.130 Cl
ENDBRANCH   2   7
TORSDOF 2
