REMARK  2 active torsions:
REMARK  status: ('A' for Active; 'I' for Inactive)
REMARK    1  A    between atoms: C2_2  and  C7_7 
REMARK    2  A    between atoms: C3_3  and  C8_8 
ROOT
HETATM    1  C1  UNL     1     -33.377   4.579   3.516  1.00 20.00     0.016 A 
HETATM    2  C2  UNL     1     -33.373   6.026   3.112  1.00 20.00     0.009 A 
HETATM    3  C3  UNL     1     -34.062   5.602   4.408  1.00 20.00    -0.036 A 
HETATM    4  C4  UNL     1     -35.568   5.624   4.425  1.00 20.00     0.016 C 
ENDROOT
BRANCH   3   5
HETATM    5  C8  UNL     1     -33.430   5.920   5.736  1.00 20.00    -0.014 C 
HETATM    6  C5  UNL     1     -33.695   7.375   6.147  1.00 20.00     0.010 C 
HETATM    7  C6  UNL     1     -33.930   4.972   6.834  1.00 20.00     0.010 C 
ENDBRANCH   3   5
BRANCH   2   8
HETATM    8  C7  UNL     1     -32.098   6.797   3.093  1.00 20.00     0.120 C 
HETATM    9 CL9  UNL     1     -32.369   8.482   2.569  1.00 20.00    -0.130 Cl
ENDBRANCH   2   8
TORSDOF 2
