REMARK  2 active torsions:
REMARK  status: ('A' for Active; 'I' for Inactive)
REMARK    1  A    between atoms: C4_4  and  C6_6 
REMARK    2  A    between atoms: C7_7  and  C8_8 
ROOT
HETATM    1  C1  UNL     1     -34.557   5.545   5.599  1.00 20.00     0.034 A 
HETATM    2  C2  UNL     1     -34.523   6.521   6.568  1.00 20.00     0.142 A 
HETATM    3  C3  UNL     1     -33.865   7.476   4.723  1.00 20.00     0.148 A 
HETATM    4  C4  UNL     1     -34.130   6.165   4.401  1.00 20.00    -0.029 A 
HETATM    5  O9  UNL     1     -34.102   7.701   6.042  1.00 20.00    -0.334 OA
ENDROOT
BRANCH   4   6
HETATM    6  C6  UNL     1     -33.987   5.508   3.017  1.00 20.00     0.026 A 
HETATM    7  C5  UNL     1     -32.712   4.756   2.704  1.00 20.00     0.016 A 
HETATM    8  C7  UNL     1     -32.997   6.052   2.004  1.00 20.00     0.005 A 
BRANCH   8   9
HETATM    9  C8  UNL     1     -32.151   7.249   2.273  1.00 20.00     0.090 C 
HETATM   10 BR10 UNL     1     -33.071   8.875   1.709  1.00 20.00    -0.096 Br
ENDBRANCH   8   9
ENDBRANCH   4   6
TORSDOF 2
