REMARK  1 active torsions:
REMARK  status: ('A' for Active; 'I' for Inactive)
REMARK    1  A    between atoms: C4_4  and  C9_9 
ROOT
HETATM    1  C1  UNL     1     -32.542   7.055   2.474  1.00 20.00     0.131 C 
HETATM    2  C2  UNL     1     -33.071   5.695   2.964  1.00 20.00     0.084 C 
HETATM    3  C3  UNL     1     -32.616   7.662   3.896  1.00 20.00     0.056 C 
HETATM    4  C4  UNL     1     -32.793   6.190   4.410  1.00 20.00     0.011 C 
HETATM    5  C5  UNL     1     -33.734   8.670   4.090  1.00 20.00     0.018 C 
HETATM    6  O10 UNL     1     -32.205   7.484   1.391  1.00 20.00    -0.298 OA
ENDROOT
BRANCH   4   7
HETATM    7  C9  UNL     1     -33.879   5.890   5.428  1.00 20.00    -0.047 C 
HETATM    8  C6  UNL     1     -33.540   6.556   6.776  1.00 20.00     0.015 C 
HETATM    9  C7  UNL     1     -33.999   4.368   5.640  1.00 20.00     0.015 C 
HETATM   10  C8  UNL     1     -35.234   6.432   4.931  1.00 20.00     0.015 C 
ENDBRANCH   4   7
TORSDOF 1
