REMARK  2 active torsions:
REMARK  status: ('A' for Active; 'I' for Inactive)
REMARK    1  A    between atoms: C3_3  and  C6_6 
REMARK    2  A    between atoms: C7_7  and  C9_9 
ROOT
HETATM    1  C1  UNL     1     -32.673   7.534   4.755  1.00 20.00     0.016 A 
HETATM    2  C2  UNL     1     -33.464   7.272   5.911  1.00 20.00     0.015 A 
HETATM    3  C3  UNL     1     -33.047   6.751   3.685  1.00 20.00    -0.013 A 
HETATM    4  C4  UNL     1     -34.412   6.300   5.680  1.00 20.00    -0.021 A 
HETATM    5  C8  UNL     1     -35.418   5.755   6.617  1.00 20.00     0.056 C 
HETATM    6  S10 UNL     1     -34.346   5.706   4.075  1.00 20.00    -0.099 SA
ENDROOT
BRANCH   3   7
HETATM    7  C6  UNL     1     -32.393   6.805   2.324  1.00 20.00     0.031 A 
HETATM    8  C5  UNL     1     -32.790   5.818   1.248  1.00 20.00     0.016 A 
HETATM    9  C7  UNL     1     -33.192   7.257   1.119  1.00 20.00     0.009 A 
BRANCH   9  10
HETATM   10  C9  UNL     1     -32.558   8.122   0.084  1.00 20.00     0.120 C 
HETATM   11 CL11 UNL     1     -32.758   9.852   0.477  1.00 20.00    -0.130 Cl
ENDBRANCH   9  10
ENDBRANCH   3   7
TORSDOF 2
