REMARK  1 active torsions:
REMARK  status: ('A' for Active; 'I' for Inactive)
REMARK    1  A    between atoms: C5_5  and  C10_10 
ROOT
HETATM    1  C1  UNL     1     -33.060   5.511   2.558  1.00 20.00     0.011 C 
HETATM    2  C2  UNL     1     -33.516   4.603   3.702  1.00 20.00     0.009 C 
HETATM    3  C3  UNL     1     -31.552   7.606   2.982  1.00 20.00     0.016 A 
HETATM    4  C4  UNL     1     -33.437   6.828   4.611  1.00 20.00     0.018 C 
HETATM    5  C5  UNL     1     -32.837   8.141   2.421  1.00 20.00     0.005 A 
HETATM    6  C6  UNL     1     -32.842   6.850   3.219  1.00 20.00    -0.035 A 
HETATM    7  C7  UNL     1     -34.284   5.537   4.655  1.00 20.00    -0.047 C 
HETATM    8  C8  UNL     1     -35.710   5.803   4.145  1.00 20.00     0.015 C 
HETATM    9  C9  UNL     1     -34.352   4.955   6.068  1.00 20.00     0.015 C 
ENDROOT
BRANCH   5  10
HETATM   10  C10 UNL     1     -33.050   8.164   0.946  1.00 20.00     0.090 C 
HETATM   11 BR11 UNL     1     -32.181   9.722   0.156  1.00 20.00    -0.096 Br
ENDBRANCH   5  10
TORSDOF 1
