REMARK  1 active torsions:
REMARK  status: ('A' for Active; 'I' for Inactive)
REMARK    1  A    between atoms: C6_6  and  C8_8 
ROOT
HETATM    1  C1  UNL     1     -32.895   4.823   3.211  1.00 20.00     0.011 C 
HETATM    2  C2  UNL     1     -32.853   6.126   2.413  1.00 20.00     0.011 C 
HETATM    3  C3  UNL     1     -31.328   7.769   3.736  1.00 20.00     0.017 A 
HETATM    4  C4  UNL     1     -34.052   4.767   4.202  1.00 20.00     0.074 C 
HETATM    5  C5  UNL     1     -33.857   7.509   4.292  1.00 20.00     0.083 C 
HETATM    6  C6  UNL     1     -32.106   8.618   2.768  1.00 20.00     0.009 A 
HETATM    7  C7  UNL     1     -32.720   7.335   3.316  1.00 20.00    -0.027 A 
HETATM    8  S9  UNL     1     -33.943   6.102   5.429  1.00 20.00    -0.168 SA
ENDROOT
BRANCH   6   9
HETATM    9  C8  UNL     1     -31.646   8.763   1.358  1.00 20.00     0.120 C 
HETATM   10 CL10 UNL     1     -32.978   9.296   0.295  1.00 20.00    -0.130 Cl
ENDBRANCH   6   9
TORSDOF 1
