REMARK  2 active torsions:
REMARK  status: ('A' for Active; 'I' for Inactive)
REMARK    1  A    between atoms: C3_3  and  C6_6 
REMARK    2  A    between atoms: C7_7  and  C9_9 
ROOT
HETATM    1  C1  UNL     1     -31.982   6.857   3.071  1.00 20.00     0.016 A 
HETATM    2  C2  UNL     1     -32.012   7.374   1.743  1.00 20.00     0.015 A 
HETATM    3  C3  UNL     1     -32.655   7.669   3.957  1.00 20.00    -0.013 A 
HETATM    4  C4  UNL     1     -32.708   8.561   1.666  1.00 20.00    -0.021 A 
HETATM    5  C8  UNL     1     -32.966   9.400   0.476  1.00 20.00     0.056 C 
HETATM    6  S10 UNL     1     -33.320   9.047   3.189  1.00 20.00    -0.099 SA
ENDROOT
BRANCH   3   7
HETATM    7  C6  UNL     1     -32.799   7.376   5.461  1.00 20.00     0.031 A 
HETATM    8  C5  UNL     1     -33.960   7.994   6.208  1.00 20.00     0.016 A 
HETATM    9  C7  UNL     1     -33.937   6.513   5.973  1.00 20.00     0.005 A 
BRANCH   9  10
HETATM   10  C9  UNL     1     -34.937   5.885   5.064  1.00 20.00     0.090 C 
HETATM   11 BR11 UNL     1     -34.287   4.161   4.422  1.00 20.00    -0.096 Br
ENDBRANCH   9  10
ENDBRANCH   3   7
TORSDOF 2
