REMARK  1 active torsions:
REMARK  status: ('A' for Active; 'I' for Inactive)
REMARK    1  A    between atoms: C3_3  and  O10_10 
ROOT
HETATM    1  C1  UNL     1     -34.130   7.067   6.098  1.00 20.00     0.143 C 
HETATM    2  C2  UNL     1     -32.895   7.477   5.276  1.00 20.00     0.082 C 
HETATM    3  C3  UNL     1     -32.996   6.101   4.548  1.00 20.00     0.146 C 
HETATM    4  C4  UNL     1     -34.341   5.763   5.284  1.00 20.00     0.040 C 
HETATM    5  C5  UNL     1     -33.068   8.740   4.451  1.00 20.00     0.020 C 
HETATM    6  C6  UNL     1     -35.604   5.793   4.426  1.00 20.00     0.026 C 
HETATM    7  C7  UNL     1     -34.270   4.496   6.133  1.00 20.00     0.026 C 
HETATM    8  O9  UNL     1     -34.720   7.581   7.026  1.00 20.00    -0.297 OA
ENDROOT
BRANCH   3   9
HETATM    9  O10 UNL     1     -33.042   6.144   3.108  1.00 20.00    -0.389 OA
HETATM   10  C8  UNL     1     -32.676   4.894   2.557  1.00 20.00     0.202 C 
ENDBRANCH   3   9
TORSDOF 1
