REMARK  0 active torsions:
REMARK  status: ('A' for Active; 'I' for Inactive)
ROOT
HETATM    1  C1  UNL     1     -32.261   8.108   0.824  1.00 20.00     0.068 C 
HETATM    2  C2  UNL     1     -33.110   5.508   2.660  1.00 20.00     0.010 A 
HETATM    3  C3  UNL     1     -33.965   5.034   3.657  1.00 20.00     0.019 A 
HETATM    4  C4  UNL     1     -33.558   7.013   5.011  1.00 20.00     0.026 A 
HETATM    5  C5  UNL     1     -32.484   6.730   2.855  1.00 20.00    -0.034 A 
HETATM    6  C6  UNL     1     -32.702   7.471   4.023  1.00 20.00    -0.049 A 
HETATM    7  C7  UNL     1     -34.188   5.781   4.824  1.00 20.00     0.011 A 
HETATM    8  C8  UNL     1     -31.949   8.762   3.987  1.00 20.00     0.041 C 
HETATM    9  C9  UNL     1     -30.912   8.471   2.888  1.00 20.00     0.028 C 
HETATM   10  C10 UNL     1     -31.548   7.447   1.924  1.00 20.00     0.126 C 
HETATM   11  N11 UNL     1     -32.824   8.631  -0.046  1.00 20.00    -0.197 NA
HETATM   12 BR12 UNL     1     -35.360   5.116   6.150  1.00 20.00    -0.051 Br
ENDROOT
TORSDOF 0
