REMARK  0 active torsions:
REMARK  status: ('A' for Active; 'I' for Inactive)
ROOT
HETATM    1  C1  UNL     1     -35.771   6.047   4.282  1.00 20.00     0.007 C 
HETATM    2  C2  UNL     1     -34.925   7.269   3.895  1.00 20.00     0.027 C 
HETATM    3  C3  UNL     1     -34.155   5.454   6.095  1.00 20.00     0.027 C 
HETATM    4  C4  UNL     1     -33.551   5.336   3.778  1.00 20.00     0.032 C 
HETATM    5  C5  UNL     1     -34.714   5.020   4.724  1.00 20.00    -0.011 C 
HETATM    6  C6  UNL     1     -33.245   6.641   5.731  1.00 20.00     0.106 C 
HETATM    7  C7  UNL     1     -33.491   6.803   4.214  1.00 20.00     0.054 C 
HETATM    8 CL8  UNL     1     -33.588   8.088   6.696  1.00 20.00    -0.123 Cl
HETATM    9 CL9  UNL     1     -32.258   7.751   3.397  1.00 20.00    -0.118 Cl
ENDROOT
TORSDOF 0
