REMARK  1 active torsions:
REMARK  status: ('A' for Active; 'I' for Inactive)
REMARK    1  A    between atoms: C1_1  and  C5_5 
ROOT
HETATM    1  C1  UNL     1     -33.860   6.456   4.339  1.00 20.00    -0.089 C 
HETATM    2  C2  UNL     1     -33.153   6.825   3.442  1.00 20.00    -0.023 C 
HETATM    3 BR6  UNL     1     -32.033   7.410   2.022  1.00 20.00     0.010 Br
ENDROOT
BRANCH   1   4
HETATM    4  C5  UNL     1     -34.705   6.016   5.409  1.00 20.00     0.066 A 
HETATM    5  C3  UNL     1     -34.271   6.269   6.828  1.00 20.00     0.018 A 
HETATM    6  C4  UNL     1     -34.243   4.875   6.276  1.00 20.00     0.018 A 
ENDBRANCH   1   4
TORSDOF 1
