REMARK  1 active torsions:
REMARK  status: ('A' for Active; 'I' for Inactive)
REMARK       I    between atoms: C1_1  and  N5_5 
REMARK    1  A    between atoms: C4_4  and  N5_5 
ROOT
HETATM    1  C1  UNL     1     -32.596   6.871   2.868  1.00 20.00     0.314 C 
HETATM    2  N5  UNL     1     -33.020   7.621   3.964  1.00 20.00    -0.343 N 
HETATM    3  O6  UNL     1     -32.440   5.653   2.909  1.00 20.00    -0.254 OA
HETATM    4 CL7  UNL     1     -32.319   7.856   1.454  1.00 20.00    -0.020 Cl
HETATM    5  H13 UNL     1     -33.125   8.632   3.847  1.00 20.00     0.164 HD
ENDROOT
BRANCH   2   6
HETATM    6  C4  UNL     1     -33.313   7.058   5.233  1.00 20.00     0.085 A 
HETATM    7  C2  UNL     1     -34.243   7.745   6.194  1.00 20.00     0.027 A 
HETATM    8  C3  UNL     1     -34.663   6.466   5.531  1.00 20.00     0.027 A 
ENDBRANCH   2   6
TORSDOF 1
