REMARK  1 active torsions:
REMARK  status: ('A' for Active; 'I' for Inactive)
REMARK    1  A    between atoms: C2_2  and  C3_3 
ROOT
HETATM    1  C1  UNL     1     -32.877   6.399   3.661  1.00 20.00     0.060 C 
HETATM    2  C2  UNL     1     -34.044   5.866   4.488  1.00 20.00     0.206 C 
HETATM    3 CL7  UNL     1     -35.581   6.446   3.770  1.00 20.00    -0.092 Cl
HETATM    4 CL8  UNL     1     -34.033   4.075   4.429  1.00 20.00    -0.092 Cl
ENDROOT
BRANCH   2   5
HETATM    5  C3  UNL     1     -33.957   6.326   5.936  1.00 20.00     0.422 C 
HETATM    6  F4  UNL     1     -33.978   7.675   6.027  1.00 20.00    -0.168 F 
HETATM    7  F5  UNL     1     -34.997   5.860   6.664  1.00 20.00    -0.168 F 
HETATM    8  F6  UNL     1     -32.821   5.897   6.531  1.00 20.00    -0.168 F 
ENDBRANCH   2   5
TORSDOF 1
