REMARK  2 active torsions:
REMARK  status: ('A' for Active; 'I' for Inactive)
REMARK    1  A    between atoms: C1_1  and  C3_3 
REMARK    2  A    between atoms: C2_2  and  C5_5 
ROOT
HETATM    1  C1  UNL     1     -32.671   7.311   4.710  1.00 20.00     0.005 C 
HETATM    2  C2  UNL     1     -31.848   7.471   3.666  1.00 20.00     0.068 C 
ENDROOT
BRANCH   1   3
HETATM    3  C3  UNL     1     -34.034   6.848   4.566  1.00 20.00    -0.004 C 
HETATM    4  C4  UNL     1     -34.868   6.684   5.603  1.00 20.00    -0.031 C 
HETATM    5  C6  UNL     1     -34.488   6.958   7.022  1.00 20.00     0.036 C 
ENDBRANCH   1   3
BRANCH   2   6
HETATM    6  C5  UNL     1     -32.306   7.174   2.275  1.00 20.00     0.241 C 
HETATM    7  O7  UNL     1     -32.306   8.052   1.416  1.00 20.00    -0.275 OA
HETATM    8 CL8  UNL     1     -32.824   5.526   1.986  1.00 20.00    -0.039 Cl
ENDBRANCH   2   6
TORSDOF 2
