REMARK  1 active torsions:
REMARK  status: ('A' for Active; 'I' for Inactive)
REMARK    1  A    between atoms: C8_8  and  C11_11 
ROOT
HETATM    1  C1  UNL     1     -34.987   7.192   4.113  1.00 20.00    -0.076 C 
HETATM    2  C2  UNL     1     -32.811   6.276   2.701  1.00 20.00     0.136 C 
HETATM    3  C3  UNL     1     -35.109   8.506   4.285  1.00 20.00     0.015 C 
HETATM    4  C4  UNL     1     -35.603   5.936   4.800  1.00 20.00     0.045 C 
HETATM    5  C5  UNL     1     -32.344   4.836   2.935  1.00 20.00     0.080 C 
HETATM    6  C6  UNL     1     -33.544   4.199   3.725  1.00 20.00     0.018 C 
HETATM    7  C7  UNL     1     -34.251   6.295   3.184  1.00 20.00     0.092 C 
HETATM    8  C8  UNL     1     -34.160   5.377   4.499  1.00 20.00    -0.019 C 
HETATM    9  O12 UNL     1     -32.128   7.163   2.215  1.00 20.00    -0.297 OA
ENDROOT
BRANCH   8  10
HETATM   10  C11 UNL     1     -33.259   5.690   5.726  1.00 20.00    -0.013 C 
HETATM   11  C9  UNL     1     -33.174   7.192   5.927  1.00 20.00     0.010 C 
HETATM   12  C10 UNL     1     -33.811   4.993   6.955  1.00 20.00     0.010 C 
ENDBRANCH   8  10
TORSDOF 1
