REMARK  0 active torsions:
REMARK  status: ('A' for Active; 'I' for Inactive)
ROOT
HETATM    1  C1  UNL     1     -33.430   5.751   3.425  1.00 20.00     0.005 C 
HETATM    2  C2  UNL     1     -34.246   4.299   5.353  1.00 20.00     0.005 C 
HETATM    3  C3  UNL     1     -35.808   6.015   4.301  1.00 20.00     0.005 C 
HETATM    4  C4  UNL     1     -32.421   6.363   4.388  1.00 20.00     0.006 C 
HETATM    5  C5  UNL     1     -34.328   5.101   6.646  1.00 20.00     0.006 C 
HETATM    6  C6  UNL     1     -35.435   7.429   4.726  1.00 20.00     0.006 C 
HETATM    7  C7  UNL     1     -34.632   5.056   4.076  1.00 20.00    -0.014 C 
HETATM    8  C8  UNL     1     -32.947   7.131   5.554  1.00 20.00    -0.006 A 
HETATM    9  C9  UNL     1     -33.793   6.493   6.637  1.00 20.00    -0.006 A 
HETATM   10  C10 UNL     1     -34.376   7.588   5.765  1.00 20.00    -0.006 A 
ENDROOT
TORSDOF 0
