REMARK  0 active torsions:
REMARK  status: ('A' for Active; 'I' for Inactive)
ROOT
HETATM    1  C1  UNL     1     -34.573   5.601   5.377  1.00 20.00     0.198 C 
HETATM    2  C2  UNL     1     -34.637   4.947   4.014  1.00 20.00     0.085 C 
HETATM    3  C3  UNL     1     -33.253   4.798   3.395  1.00 20.00     0.008 C 
HETATM    4  C4  UNL     1     -32.928   5.811   2.297  1.00 20.00     0.000 C 
HETATM    5  C5  UNL     1     -33.347   7.260   2.529  1.00 20.00     0.000 C 
HETATM    6  C6  UNL     1     -32.667   7.988   3.683  1.00 20.00     0.006 C 
HETATM    7  C7  UNL     1     -32.907   7.496   5.112  1.00 20.00     0.087 C 
HETATM    8  C8  UNL     1     -34.333   7.094   5.475  1.00 20.00     0.302 C 
HETATM    9  O9  UNL     1     -34.696   4.920   6.399  1.00 20.00    -0.291 OA
HETATM   10  F10 UNL     1     -34.536   7.482   6.772  1.00 20.00    -0.198 F 
HETATM   11  F11 UNL     1     -35.235   7.803   4.751  1.00 20.00    -0.198 F 
ENDROOT
TORSDOF 0
