REMARK  3 active torsions:
REMARK  status: ('A' for Active; 'I' for Inactive)
REMARK    1  A    between atoms: C3_3  and  C5_5 
REMARK    2  A    between atoms: C4_4  and  C5_5 
REMARK    3  A    between atoms: C5_5  and  O6_6 
ROOT
HETATM    1  C5  UNL     1     -33.419   7.360   4.368  1.00 20.00     0.132 C 
ENDROOT
BRANCH   1   2
HETATM    2  C3  UNL     1     -34.412   6.641   5.213  1.00 20.00     0.015 A 
HETATM    3  C1  UNL     1     -35.418   5.719   4.582  1.00 20.00     0.007 A 
HETATM    4  C2  UNL     1     -34.300   5.155   5.415  1.00 20.00     0.007 A 
ENDBRANCH   1   2
BRANCH   1   5
HETATM    5  C4  UNL     1     -32.836   6.446   3.294  1.00 20.00     0.117 C 
HETATM    6 BR7  UNL     1     -32.004   7.497   1.875  1.00 20.00    -0.094 Br
ENDBRANCH   1   5
BRANCH   1   7
HETATM    7  O6  UNL     1     -32.345   7.827   5.191  1.00 20.00    -0.394 OA
HETATM    8  H16 UNL     1     -31.954   7.040   5.596  1.00 20.00     0.210 HD
ENDBRANCH   1   7
TORSDOF 3
