REMARK  3 active torsions:
REMARK  status: ('A' for Active; 'I' for Inactive)
REMARK    1  A    between atoms: C5_5  and  C8_8 
REMARK    2  A    between atoms: C6_6  and  C7_7 
REMARK    3  A    between atoms: C6_6  and  C8_8 
ROOT
HETATM    1  C4  UNL     1     -34.999   6.161   3.202  1.00 20.00     0.032 C 
HETATM    2  C8  UNL     1     -33.623   5.856   3.821  1.00 20.00     0.033 C 
HETATM    3 CL9  UNL     1     -33.704   4.133   4.371  1.00 20.00    -0.120 Cl
ENDROOT
BRANCH   2   4
HETATM    4  C5  UNL     1     -32.511   5.951   2.752  1.00 20.00     0.021 C 
HETATM    5  C1  UNL     1     -32.373   7.313   2.080  1.00 20.00     0.007 C 
ENDBRANCH   2   4
BRANCH   2   6
HETATM    6  C6  UNL     1     -33.411   6.789   5.044  1.00 20.00     0.029 C 
BRANCH   6   7
HETATM    7  C7  UNL     1     -34.562   6.972   6.063  1.00 20.00    -0.021 C 
HETATM    8  C2  UNL     1     -34.913   5.607   6.671  1.00 20.00     0.009 C 
HETATM    9  C3  UNL     1     -34.255   7.954   7.192  1.00 20.00     0.009 C 
ENDBRANCH   6   7
ENDBRANCH   2   6
TORSDOF 3
