REMARK  1 active torsions:
REMARK  status: ('A' for Active; 'I' for Inactive)
REMARK    1  A    between atoms: C5_5  and  C7_7 
ROOT
HETATM    1  C1  UNL     1     -32.163   7.238   3.796  1.00 20.00     0.019 C 
HETATM    2  C2  UNL     1     -34.269   4.883   5.087  1.00 20.00     0.292 C 
HETATM    3  C3  UNL     1     -35.804   5.979   4.192  1.00 20.00     0.292 C 
HETATM    4  C4  UNL     1     -32.330   6.744   2.369  1.00 20.00     0.075 C 
HETATM    5  C5  UNL     1     -33.571   7.403   4.369  1.00 20.00     0.037 C 
HETATM    6  C6  UNL     1     -34.263   6.071   4.083  1.00 20.00     0.066 C 
HETATM    7  N8  UNL     1     -35.627   5.302   5.495  1.00 20.00     0.086 N 
HETATM    8  S10 UNL     1     -33.650   5.493   2.423  1.00 20.00    -0.155 SA
HETATM    9  H22 UNL     1     -36.277   4.538   5.673  1.00 20.00     0.316 HD
ENDROOT
BRANCH   5  10
HETATM   10  C7  UNL     1     -33.544   7.797   5.838  1.00 20.00     0.228 C 
HETATM   11  F9  UNL     1     -32.921   6.813   6.532  1.00 20.00    -0.255 F 
ENDBRANCH   5  10
TORSDOF 1
