REMARK  0 active torsions:
REMARK  status: ('A' for Active; 'I' for Inactive)
ROOT
HETATM    1  C1  UNL     1     -33.511   5.853   3.135  1.00 20.00     0.047 C 
HETATM    2  C2  UNL     1     -34.083   5.365   4.243  1.00 20.00    -0.014 C 
HETATM    3  C3  UNL     1     -32.661   7.068   3.239  1.00 20.00     0.149 C 
HETATM    4  C4  UNL     1     -32.405   7.667   4.612  1.00 20.00     0.084 C 
HETATM    5  C5  UNL     1     -33.568   7.428   5.571  1.00 20.00     0.021 C 
HETATM    6  C6  UNL     1     -34.829   5.462   6.697  1.00 20.00     0.014 A 
HETATM    7  C7  UNL     1     -33.377   5.084   6.680  1.00 20.00     0.014 A 
HETATM    8  C8  UNL     1     -33.937   5.964   5.584  1.00 20.00    -0.022 A 
HETATM    9  O9  UNL     1     -32.135   7.530   2.228  1.00 20.00    -0.293 OA
ENDROOT
TORSDOF 0
