REMARK  0 active torsions:
REMARK  status: ('A' for Active; 'I' for Inactive)
ROOT
HETATM    1  C1  UNL     1     -33.515   5.465   2.748  1.00 20.00     0.008 C 
HETATM    2  C2  UNL     1     -32.204   6.247   2.676  1.00 20.00     0.030 C 
HETATM    3  C3  UNL     1     -33.800   4.950   4.155  1.00 20.00     0.081 C 
HETATM    4  C4  UNL     1     -32.211   7.605   3.376  1.00 20.00     0.270 C 
HETATM    5  C5  UNL     1     -33.998   7.410   4.998  1.00 20.00     0.348 C 
HETATM    6  C6  UNL     1     -34.466   5.965   5.070  1.00 20.00     0.269 C 
HETATM    7  N7  UNL     1     -32.556   7.561   4.800  1.00 20.00     0.089 N 
HETATM    8  F8  UNL     1     -34.343   5.522   6.352  1.00 20.00    -0.204 F 
HETATM    9  F9  UNL     1     -35.806   5.957   4.807  1.00 20.00    -0.204 F 
HETATM   10  H20 UNL     1     -32.047   6.814   5.270  1.00 20.00     0.316 HD
ENDROOT
TORSDOF 0
