REMARK  1 active torsions:
REMARK  status: ('A' for Active; 'I' for Inactive)
REMARK    1  A    between atoms: C6_6  and  C11_11 
ROOT
HETATM    1  C1  UNL     1     -32.566   8.728   0.624  1.00 20.00    -0.004 C 
HETATM    2  C2  UNL     1     -32.419   7.330   0.937  1.00 20.00    -0.003 C 
HETATM    3  C3  UNL     1     -32.856   9.623   1.578  1.00 20.00    -0.025 C 
HETATM    4  C4  UNL     1     -32.338   6.903   2.205  1.00 20.00    -0.013 C 
HETATM    5  C7  UNL     1     -33.037   9.222   3.017  1.00 20.00     0.044 C 
HETATM    6  C11 UNL     1     -32.405   7.845   3.397  1.00 20.00    -0.000 C 
HETATM    7  C12 UNL     1     -30.969   8.054   3.913  1.00 20.00     0.025 C 
ENDROOT
BRANCH   6   8
HETATM    8  C6  UNL     1     -33.218   7.229   4.509  1.00 20.00    -0.071 C 
HETATM    9  C5  UNL     1     -34.236   6.370   4.383  1.00 20.00    -0.023 C 
HETATM   10  C8  UNL     1     -34.772   5.944   5.708  1.00 20.00     0.027 C 
HETATM   11  C10 UNL     1     -34.132   6.943   6.671  1.00 20.00     0.008 C 
HETATM   12  C9  UNL     1     -32.915   7.517   5.945  1.00 20.00     0.035 C 
ENDBRANCH   6   8
TORSDOF 1
