REMARK  1 active torsions:
REMARK  status: ('A' for Active; 'I' for Inactive)
REMARK    1  A    between atoms: C2_2  and  C4_4 
ROOT
HETATM    1  C1  UNL     1     -32.932   6.960   3.244  1.00 20.00    -0.102 C 
HETATM    2  C2  UNL     1     -33.706   6.581   4.081  1.00 20.00     0.008 C 
HETATM    3  C3  UNL     1     -31.990   7.422   2.226  1.00 20.00     0.112 C 
ENDROOT
BRANCH   2   4
HETATM    4  C4  UNL     1     -34.640   6.123   5.092  1.00 20.00     0.459 C 
HETATM    5  F5  UNL     1     -35.902   6.101   4.607  1.00 20.00    -0.159 F 
HETATM    6  F6  UNL     1     -34.621   6.938   6.170  1.00 20.00    -0.159 F 
HETATM    7  F7  UNL     1     -34.329   4.875   5.506  1.00 20.00    -0.159 F 
ENDBRANCH   2   4
TORSDOF 1
