REMARK  0 active torsions:
REMARK  status: ('A' for Active; 'I' for Inactive)
ROOT
HETATM    1  C1  UNL     1     -33.853   7.094   4.150  1.00 20.00     0.078 C 
HETATM    2  C2  UNL     1     -32.868   5.500   2.648  1.00 20.00     0.152 C 
HETATM    3  C3  UNL     1     -32.974   6.865   3.175  1.00 20.00     0.134 C 
HETATM    4  C4  UNL     1     -33.916   4.612   4.550  1.00 20.00     0.213 C 
HETATM    5  C5  UNL     1     -34.638   5.954   4.721  1.00 20.00     0.217 C 
HETATM    6  N6  UNL     1     -33.321   4.435   3.211  1.00 20.00    -0.294 NA
HETATM    7  F7  UNL     1     -32.271   7.828   2.558  1.00 20.00    -0.205 F 
HETATM    8  F8  UNL     1     -35.844   5.870   4.090  1.00 20.00    -0.219 F 
HETATM    9 CL9  UNL     1     -34.949   6.240   6.456  1.00 20.00    -0.076 Cl
ENDROOT
TORSDOF 0
