REMARK  0 active torsions:
REMARK  status: ('A' for Active; 'I' for Inactive)
ROOT
HETATM    1  C1  UNL     1     -33.649   5.595   4.033  1.00 20.00     0.078 C 
HETATM    2  C2  UNL     1     -32.127   7.150   3.019  1.00 20.00     0.152 C 
HETATM    3  C3  UNL     1     -32.759   5.827   3.069  1.00 20.00     0.134 C 
HETATM    4  C4  UNL     1     -32.723   7.594   5.244  1.00 20.00     0.213 C 
HETATM    5  C5  UNL     1     -33.917   6.648   5.062  1.00 20.00     0.217 C 
HETATM    6  N6  UNL     1     -32.118   8.021   3.967  1.00 20.00    -0.294 NA
HETATM    7  F7  UNL     1     -32.496   4.971   2.069  1.00 20.00    -0.205 F 
HETATM    8  F8  UNL     1     -34.994   7.393   4.682  1.00 20.00    -0.219 F 
HETATM    9 CL9  UNL     1     -34.307   5.883   6.628  1.00 20.00    -0.076 Cl
ENDROOT
TORSDOF 0
