REMARK  3 active torsions:
REMARK  status: ('A' for Active; 'I' for Inactive)
REMARK    1  A    between atoms: C3_3  and  C8_8 
REMARK    2  A    between atoms: C6_6  and  C7_7 
REMARK    3  A    between atoms: C7_7  and  C8_8 
ROOT
HETATM    1  C5  UNL     1     -32.834   5.484   2.443  1.00 20.00     0.010 C 
HETATM    2  C8  UNL     1     -32.744   6.633   3.448  1.00 20.00    -0.014 C 
ENDROOT
BRANCH   2   3
HETATM    3  C3  UNL     1     -34.039   6.709   4.261  1.00 20.00    -0.011 A 
HETATM    4  C1  UNL     1     -34.287   5.740   5.384  1.00 20.00     0.005 A 
HETATM    5  C2  UNL     1     -34.011   7.186   5.687  1.00 20.00     0.005 A 
ENDBRANCH   2   3
BRANCH   2   6
HETATM    6  C7  UNL     1     -32.474   7.988   2.769  1.00 20.00     0.004 C 
BRANCH   6   7
HETATM    7  C6  UNL     1     -33.338   8.232   1.529  1.00 20.00    -0.004 C 
HETATM    8  C4  UNL     1     -33.084   9.611   0.938  1.00 20.00     0.005 C 
ENDBRANCH   6   7
ENDBRANCH   2   6
TORSDOF 3
