REMARK  3 active torsions:
REMARK  status: ('A' for Active; 'I' for Inactive)
REMARK    1  A    between atoms: C1_1  and  C3_3 
REMARK    2  A    between atoms: C2_2  and  C9_9 
REMARK    3  A    between atoms: C3_3  and  O11_11 
ROOT
HETATM    1  C1  UNL     1     -33.233   5.670   3.427  1.00 20.00     0.085 C 
HETATM    2  C2  UNL     1     -33.908   5.962   4.560  1.00 20.00    -0.070 C 
HETATM    3  C4  UNL     1     -34.806   4.948   5.238  1.00 20.00     0.044 C 
ENDROOT
BRANCH   2   4
HETATM    4  C9  UNL     1     -33.801   7.345   5.257  1.00 20.00    -0.028 C 
HETATM    5  C5  UNL     1     -34.672   7.366   6.533  1.00 20.00     0.019 C 
HETATM    6  C6  UNL     1     -34.275   8.530   4.381  1.00 20.00     0.019 C 
HETATM    7  C7  UNL     1     -32.333   7.624   5.640  1.00 20.00     0.019 C 
ENDBRANCH   2   4
BRANCH   1   8
HETATM    8  C3  UNL     1     -32.335   6.604   2.702  1.00 20.00     0.282 C 
HETATM    9  O10 UNL     1     -31.137   6.734   2.890  1.00 20.00    -0.260 OA
BRANCH   8  10
HETATM   10  O11 UNL     1     -33.092   7.261   1.781  1.00 20.00    -0.323 OA
HETATM   11  C8  UNL     1     -32.386   8.197   0.960  1.00 20.00     0.213 C 
ENDBRANCH   8  10
ENDBRANCH   1   8
TORSDOF 3
