REMARK  1 active torsions:
REMARK  status: ('A' for Active; 'I' for Inactive)
REMARK    1  A    between atoms: C5_5  and  C6_6 
ROOT
HETATM    1  C1  UNL     1     -34.977   6.079   6.801  1.00 20.00     0.011 C 
HETATM    2  C2  UNL     1     -34.778   4.959   5.777  1.00 20.00     0.011 C 
HETATM    3  C3  UNL     1     -34.484   7.478   6.448  1.00 20.00     0.075 C 
HETATM    4  C4  UNL     1     -35.085   5.331   4.329  1.00 20.00     0.075 C 
HETATM    5  C5  UNL     1     -33.265   7.444   3.960  1.00 20.00     0.122 C 
HETATM    6  S7  UNL     1     -32.819   7.530   5.726  1.00 20.00    -0.152 SA
HETATM    7  S8  UNL     1     -33.578   5.744   3.388  1.00 20.00    -0.152 SA
ENDROOT
BRANCH   5   8
HETATM    8  C6  UNL     1     -32.106   8.017   3.146  1.00 20.00     0.140 C 
HETATM    9 CL9  UNL     1     -32.667   8.483   1.532  1.00 20.00    -0.128 Cl
ENDBRANCH   5   8
TORSDOF 1
