REMARK  1 active torsions:
REMARK  status: ('A' for Active; 'I' for Inactive)
REMARK    1  A    between atoms: C1_1  and  C4_4 
ROOT
HETATM    1  C2  UNL     1     -34.023   7.536   5.825  1.00 20.00     0.173 C 
HETATM    2  C3  UNL     1     -34.962   5.455   5.361  1.00 20.00     0.173 C 
HETATM    3  C4  UNL     1     -33.107   6.287   3.720  1.00 20.00     0.060 A 
HETATM    4  C5  UNL     1     -33.961   7.360   4.348  1.00 20.00     0.027 A 
HETATM    5  C6  UNL     1     -34.557   6.041   4.054  1.00 20.00     0.027 A 
HETATM    6  O8  UNL     1     -34.326   6.244   6.385  1.00 20.00    -0.390 OA
ENDROOT
BRANCH   3   7
HETATM    7  C1  UNL     1     -32.713   6.421   2.313  1.00 20.00     0.236 C 
HETATM    8  O7  UNL     1     -32.118   7.397   1.868  1.00 20.00    -0.306 OA
ENDBRANCH   3   7
TORSDOF 1
