REMARK  1 active torsions:
REMARK  status: ('A' for Active; 'I' for Inactive)
REMARK    1  A    between atoms: C1_1  and  C3_3 
ROOT
HETATM    1  C1  UNL     1     -34.352   5.612   5.985  1.00 20.00     0.072 C 
HETATM    2  C2  UNL     1     -33.626   6.609   6.493  1.00 20.00     0.189 C 
HETATM    3  F4  UNL     1     -32.951   7.464   5.703  1.00 20.00    -0.220 F 
ENDROOT
BRANCH   1   4
HETATM    4  C3  UNL     1     -34.496   5.336   4.529  1.00 20.00     0.378 C 
HETATM    5  F5  UNL     1     -33.780   6.199   3.760  1.00 20.00    -0.210 F 
HETATM    6  F6  UNL     1     -34.039   4.091   4.229  1.00 20.00    -0.210 F 
ENDBRANCH   1   4
TORSDOF 1
