REMARK  2 active torsions:
REMARK  status: ('A' for Active; 'I' for Inactive)
REMARK    1  A    between atoms: C2_2  and  C9_9 
REMARK    2  A    between atoms: C3_3  and  C10_10 
ROOT
HETATM    1  C1  UNL     1     -33.399   4.495   3.835  1.00 20.00     0.079 A 
HETATM    2  C2  UNL     1     -33.873   5.649   4.421  1.00 20.00     0.046 A 
HETATM    3  C3  UNL     1     -32.818   6.551   2.723  1.00 20.00     0.079 A 
HETATM    4  N11 UNL     1     -33.541   6.830   3.785  1.00 20.00    -0.249 NA
HETATM    5  S12 UNL     1     -32.500   4.890   2.429  1.00 20.00    -0.084 SA
ENDROOT
BRANCH   3   6
HETATM    6  C10 UNL     1     -32.269   7.686   1.765  1.00 20.00     0.045 C 
HETATM    7  C7  UNL     1     -32.855   7.808   0.326  1.00 20.00     0.011 C 
HETATM    8  C4  UNL     1     -32.646   9.329   0.442  1.00 20.00     0.002 C 
HETATM    9  C8  UNL     1     -32.765   9.150   1.968  1.00 20.00     0.011 C 
ENDBRANCH   3   6
BRANCH   2  10
HETATM   10  C9  UNL     1     -34.717   5.633   5.700  1.00 20.00     0.038 A 
HETATM   11  C5  UNL     1     -34.250   6.442   6.891  1.00 20.00     0.011 A 
HETATM   12  C6  UNL     1     -34.162   4.948   6.931  1.00 20.00     0.011 A 
ENDBRANCH   2  10
TORSDOF 2
