REMARK  0 active torsions:
REMARK  status: ('A' for Active; 'I' for Inactive)
ROOT
HETATM    1  C1  UNL     1     -33.751   5.725   3.472  1.00 20.00     0.017 C 
HETATM    2  C2  UNL     1     -33.099   6.938   4.127  1.00 20.00     0.027 C 
HETATM    3  C3  UNL     1     -34.622   5.180   4.607  1.00 20.00     0.123 C 
HETATM    4  C4  UNL     1     -34.246   7.459   4.983  1.00 20.00     0.197 C 
HETATM    5  C5  UNL     1     -32.773   4.738   2.855  1.00 20.00     0.013 C 
HETATM    6  C6  UNL     1     -32.571   7.967   3.137  1.00 20.00     0.014 C 
HETATM    7  C7  UNL     1     -33.935   4.229   5.579  1.00 20.00     0.040 C 
HETATM    8  O8  UNL     1     -35.055   6.335   5.351  1.00 20.00    -0.369 OA
HETATM    9 BR9  UNL     1     -33.588   8.345   6.581  1.00 20.00    -0.061 Br
ENDROOT
TORSDOF 0
