REMARK  0 active torsions:
REMARK  status: ('A' for Active; 'I' for Inactive)
ROOT
HETATM    1  C1  UNL     1     -32.714   6.553   4.260  1.00 20.00     0.016 C 
HETATM    2  C2  UNL     1     -33.806   6.927   5.256  1.00 20.00     0.016 C 
HETATM    3  C3  UNL     1     -33.505   5.689   3.280  1.00 20.00     0.122 C 
HETATM    4  C4  UNL     1     -34.609   5.625   5.350  1.00 20.00     0.122 C 
HETATM    5  C5  UNL     1     -32.030   7.742   3.604  1.00 20.00     0.013 C 
HETATM    6  C6  UNL     1     -33.295   7.491   6.572  1.00 20.00     0.013 C 
HETATM    7  C7  UNL     1     -32.654   4.688   2.520  1.00 20.00     0.040 C 
HETATM    8  C8  UNL     1     -34.146   4.630   6.407  1.00 20.00     0.040 C 
HETATM    9  O9  UNL     1     -34.480   4.981   4.065  1.00 20.00    -0.381 OA
ENDROOT
TORSDOF 0
