REMARK  1 active torsions:
REMARK  status: ('A' for Active; 'I' for Inactive)
REMARK    1  A    between atoms: C4_4  and  C10_10 
ROOT
HETATM    1  C1  UNL     1     -32.416   6.607   2.788  1.00 20.00     0.016 C 
HETATM    2  C2  UNL     1     -33.313   7.490   3.648  1.00 20.00     0.017 C 
HETATM    3  C3  UNL     1     -33.349   5.430   2.516  1.00 20.00     0.122 C 
HETATM    4  C4  UNL     1     -34.044   6.454   4.510  1.00 20.00     0.129 C 
HETATM    5  C5  UNL     1     -31.904   7.279   1.523  1.00 20.00     0.013 C 
HETATM    6  C6  UNL     1     -32.583   8.589   4.403  1.00 20.00     0.013 C 
HETATM    7  C7  UNL     1     -32.625   4.131   2.207  1.00 20.00     0.040 C 
HETATM    8  O11 UNL     1     -34.139   5.259   3.707  1.00 20.00    -0.380 OA
ENDROOT
BRANCH   4   9
HETATM    9  C10 UNL     1     -33.361   6.072   5.818  1.00 20.00     0.007 C 
HETATM   10  C8  UNL     1     -33.591   7.146   6.881  1.00 20.00     0.012 C 
HETATM   11  C9  UNL     1     -33.861   4.715   6.311  1.00 20.00     0.012 C 
ENDBRANCH   4   9
TORSDOF 1
