REMARK  1 active torsions:
REMARK  status: ('A' for Active; 'I' for Inactive)
REMARK    1  A    between atoms: C4_4  and  C10_10 
ROOT
HETATM    1  C1  UNL     1     -34.095   4.193   4.721  1.00 20.00     0.016 C 
HETATM    2  C2  UNL     1     -33.949   5.047   3.458  1.00 20.00     0.017 C 
HETATM    3  C3  UNL     1     -34.875   5.163   5.613  1.00 20.00     0.122 C 
HETATM    4  C4  UNL     1     -33.839   6.484   3.992  1.00 20.00     0.129 C 
HETATM    5  C5  UNL     1     -32.772   3.718   5.323  1.00 20.00     0.013 C 
HETATM    6  C6  UNL     1     -32.891   4.611   2.456  1.00 20.00     0.013 C 
HETATM    7  C7  UNL     1     -34.851   4.890   7.105  1.00 20.00     0.040 C 
HETATM    8  O11 UNL     1     -34.315   6.459   5.352  1.00 20.00    -0.380 OA
ENDROOT
BRANCH   4   9
HETATM    9  C10 UNL     1     -32.458   7.123   3.986  1.00 20.00     0.007 C 
HETATM   10  C8  UNL     1     -32.092   7.611   2.583  1.00 20.00     0.012 C 
HETATM   11  C9  UNL     1     -32.389   8.277   4.986  1.00 20.00     0.012 C 
ENDBRANCH   4   9
TORSDOF 1
