REMARK  0 active torsions:
REMARK  status: ('A' for Active; 'I' for Inactive)
ROOT
HETATM    1  C1  UNL     1     -33.779   6.660   5.309  1.00 20.00     0.094 A 
HETATM    2  C2  UNL     1     -32.792   7.454   4.697  1.00 20.00     0.073 A 
HETATM    3  C3  UNL     1     -33.931   5.588   4.465  1.00 20.00     0.225 A 
HETATM    4  C4  UNL     1     -32.227   8.732   5.168  1.00 20.00     0.074 C 
HETATM    5  C5  UNL     1     -32.856   4.933   2.299  1.00 20.00     0.183 C 
HETATM    6  N6  UNL     1     -32.346   6.931   3.551  1.00 20.00    -0.174 NA
HETATM    7  N7  UNL     1     -33.058   5.796   3.438  1.00 20.00    -0.247 N 
HETATM    8  F8  UNL     1     -34.760   4.554   4.610  1.00 20.00    -0.183 F 
HETATM    9 BR9  UNL     1     -34.666   7.014   6.910  1.00 20.00    -0.044 Br
ENDROOT
TORSDOF 0
