REMARK  1 active torsions:
REMARK  status: ('A' for Active; 'I' for Inactive)
REMARK    1  A    between atoms: CA_4  and  C_5 
ROOT
HETATM    1  C1  UNK A   1     -32.585   6.949   2.897  1.00 20.00     0.013 A 
HETATM    2  C2  UNK A   1     -31.873   7.431   1.677  1.00 20.00     0.066 C 
ATOM      3  N   VAL A   1     -32.644   7.634   3.999  1.00 20.00    -0.255 NA
ATOM      4  CA  VAL A   1     -33.375   6.846   4.847  1.00 20.00     0.096 A 
ATOM      5  CB  VAL A   1     -33.779   5.687   4.313  1.00 20.00    -0.047 A 
ATOM      6  CG1 VAL A   1     -34.577   4.573   4.887  1.00 20.00     0.046 C 
ATOM      7  CG2 VAL A   1     -33.285   5.613   2.904  1.00 20.00     0.090 A 
ENDROOT
BRANCH   4   8
ATOM      8  C   VAL A   1     -33.655   7.294   6.206  1.00 20.00     0.290 C 
ATOM      9  O   VAL A   1     -34.307   6.628   7.006  1.00 20.00    -0.300 OA
ENDBRANCH   4   8
TORSDOF 1
