REMARK  2 active torsions:
REMARK  status: ('A' for Active; 'I' for Inactive)
REMARK    1  A    between atoms: C2_2  and  C9_9 
REMARK    2  A    between atoms: C3_3  and  C6_6 
ROOT
HETATM    1  C1  UNL     1     -33.561   5.500   3.702  1.00 20.00     0.079 A 
HETATM    2  C2  UNL     1     -33.890   6.517   4.573  1.00 20.00     0.045 A 
HETATM    3  C3  UNL     1     -32.819   7.702   3.070  1.00 20.00     0.079 A 
HETATM    4  N10 UNL     1     -33.465   7.781   4.212  1.00 20.00    -0.249 NA
HETATM    5  S11 UNL     1     -32.686   6.140   2.373  1.00 20.00    -0.084 SA
ENDROOT
BRANCH   2   6
HETATM    6  C9  UNL     1     -34.665   6.359   5.868  1.00 20.00     0.030 C 
HETATM    7  C7  UNL     1     -34.292   7.443   6.882  1.00 20.00     0.016 C 
HETATM    8  C8  UNL     1     -34.478   4.964   6.469  1.00 20.00     0.016 C 
ENDBRANCH   2   6
BRANCH   3   9
HETATM    9  C6  UNL     1     -32.216   8.944   2.394  1.00 20.00     0.045 A 
HETATM   10  C4  UNL     1     -33.099   9.781   1.498  1.00 20.00     0.012 A 
HETATM   11  C5  UNL     1     -32.025   8.932   0.895  1.00 20.00     0.012 A 
ENDBRANCH   3   9
TORSDOF 2
