REMARK  0 active torsions:
REMARK  status: ('A' for Active; 'I' for Inactive)
ROOT
HETATM    1  C1  UNL     1     -34.436   4.859   5.320  1.00 20.00     0.184 A 
HETATM    2  C2  UNL     1     -34.140   6.234   5.279  1.00 20.00     0.175 A 
HETATM    3  C3  UNL     1     -33.524   6.416   4.065  1.00 20.00     0.162 A 
HETATM    4  C4  UNL     1     -32.943   4.845   2.182  1.00 20.00     0.181 C 
HETATM    5  N5  UNL     1     -34.041   4.213   4.220  1.00 20.00    -0.181 NA
HETATM    6  N6  UNL     1     -33.491   5.187   3.475  1.00 20.00    -0.260 N 
HETATM    7  F7  UNL     1     -34.398   7.150   6.206  1.00 20.00    -0.201 F 
HETATM    8 CL8  UNL     1     -32.885   7.788   3.303  1.00 20.00    -0.059 Cl
ENDROOT
TORSDOF 0
