REMARK  2 active torsions:
REMARK  status: ('A' for Active; 'I' for Inactive)
REMARK    1  A    between atoms: C1_1  and  C3_3 
REMARK    2  A    between atoms: C3_3  and  C4_4 
ROOT
HETATM    1  C3  UNL     1     -33.723   6.641   4.989  1.00 20.00     0.319 C 
HETATM    2  F7  UNL     1     -34.655   7.607   4.717  1.00 20.00    -0.209 F 
HETATM    3 CL12 UNL     1     -32.480   7.411   6.026  1.00 20.00    -0.067 Cl
ENDROOT
BRANCH   1   4
HETATM    4  C1  UNL     1     -33.093   6.146   3.707  1.00 20.00     0.143 C 
HETATM    5  C2  UNL     1     -33.155   4.880   3.270  1.00 20.00     0.289 C 
HETATM    6  F5  UNL     1     -32.562   4.524   2.111  1.00 20.00    -0.171 F 
HETATM    7  F6  UNL     1     -33.813   3.939   3.982  1.00 20.00    -0.171 F 
HETATM    8 CL11 UNL     1     -32.230   7.314   2.748  1.00 20.00    -0.078 Cl
ENDBRANCH   1   4
BRANCH   1   9
HETATM    9  C4  UNL     1     -34.457   5.562   5.772  1.00 20.00     0.443 C 
HETATM   10  F8  UNL     1     -33.611   4.564   6.119  1.00 20.00    -0.166 F 
HETATM   11  F9  UNL     1     -35.468   5.007   5.073  1.00 20.00    -0.166 F 
HETATM   12  F10 UNL     1     -34.974   6.064   6.916  1.00 20.00    -0.166 F 
ENDBRANCH   1   9
TORSDOF 2
