REMARK  1 active torsions:
REMARK  status: ('A' for Active; 'I' for Inactive)
REMARK    1  A    between atoms: C7_7  and  N8_8 
ROOT
HETATM    1  C1  UNL     1     -34.562   6.995   6.106  1.00 20.00     0.065 C 
HETATM    2  C2  UNL     1     -33.213   7.264   5.430  1.00 20.00     0.275 C 
HETATM    3  C3  UNL     1     -33.669   5.894   3.480  1.00 20.00     0.306 C 
HETATM    4  C4  UNL     1     -35.280   5.822   5.525  1.00 20.00     0.154 A 
HETATM    5  C5  UNL     1     -34.854   5.304   4.181  1.00 20.00     0.179 A 
HETATM    6  N8  UNL     1     -33.362   7.250   3.967  1.00 20.00     0.090 N 
HETATM    7  O9  UNL     1     -34.516   4.621   5.405  1.00 20.00    -0.374 OA
ENDROOT
BRANCH   6   8
HETATM    8  C7  UNL     1     -32.149   7.753   3.322  1.00 20.00     0.268 C 
HETATM    9  C6  UNL     1     -32.286   7.744   1.837  1.00 20.00     0.037 C 
ENDBRANCH   6   8
TORSDOF 1
