REMARK  0 active torsions:
REMARK  status: ('A' for Active; 'I' for Inactive)
ROOT
HETATM    1  C1  UNL     1     -34.747   6.277   6.118  1.00 20.00     0.217 C 
HETATM    2  C2  UNL     1     -33.738   7.161   5.416  1.00 20.00     0.108 C 
HETATM    3  C3  UNL     1     -34.484   4.559   4.306  1.00 20.00     0.131 C 
HETATM    4  C4  UNL     1     -32.895   6.469   4.338  1.00 20.00    -0.001 C 
HETATM    5  C5  UNL     1     -33.778   5.591   3.408  1.00 20.00    -0.028 C 
HETATM    6  C6  UNL     1     -32.046   7.517   3.609  1.00 20.00     0.011 C 
HETATM    7  C7  UNL     1     -32.914   4.821   2.389  1.00 20.00     0.016 C 
HETATM    8  C8  UNL     1     -34.827   6.404   2.624  1.00 20.00     0.016 C 
HETATM    9  N9  UNL     1     -35.140   5.135   5.464  1.00 20.00    -0.360 N 
HETATM   10  O10 UNL     1     -35.240   6.624   7.193  1.00 20.00    -0.274 OA
HETATM   11  H25 UNL     1     -35.959   4.653   5.822  1.00 20.00     0.162 HD
ENDROOT
TORSDOF 0
