REMARK  0 active torsions:
REMARK  status: ('A' for Active; 'I' for Inactive)
ROOT
HETATM    1  C1  UNL     1     -33.900   6.789   5.401  1.00 20.00     0.105 C 
HETATM    2  C2  UNL     1     -34.469   5.686   4.880  1.00 20.00     0.056 C 
HETATM    3  C3  UNL     1     -32.838   7.484   4.631  1.00 20.00     0.196 C 
HETATM    4  C4  UNL     1     -33.230   5.666   2.925  1.00 20.00     0.035 C 
HETATM    5  C5  UNL     1     -32.560   6.972   3.249  1.00 20.00     0.205 C 
HETATM    6  C6  UNL     1     -35.567   4.917   5.574  1.00 20.00     0.072 C 
HETATM    7  C7  UNL     1     -32.856   4.971   1.637  1.00 20.00     0.068 C 
HETATM    8  N8  UNL     1     -34.120   5.104   3.680  1.00 20.00    -0.259 NA
HETATM    9  O9  UNL     1     -32.238   8.454   5.091  1.00 20.00    -0.289 OA
HETATM   10 CL10 UNL     1     -34.321   7.487   6.918  1.00 20.00    -0.078 Cl
HETATM   11 CL11 UNL     1     -33.158   8.197   2.111  1.00 20.00    -0.110 Cl
ENDROOT
TORSDOF 0
