REMARK  1 active torsions:
REMARK  status: ('A' for Active; 'I' for Inactive)
REMARK    1  A    between atoms: C4_4  and  C8_8 
ROOT
HETATM    1  C1  UNL     1     -34.057   5.015   4.847  1.00 20.00     0.030 A 
HETATM    2  C2  UNL     1     -33.437   7.320   5.144  1.00 20.00     0.055 A 
HETATM    3  C3  UNL     1     -34.526   5.029   6.151  1.00 20.00     0.119 A 
HETATM    4  C4  UNL     1     -33.504   6.186   4.342  1.00 20.00    -0.010 A 
HETATM    5  C5  UNL     1     -33.934   7.231   6.435  1.00 20.00     0.126 A 
HETATM    6  N9  UNL     1     -34.479   6.111   6.960  1.00 20.00    -0.249 NA
HETATM    7 CL12 UNL     1     -33.894   8.579   7.496  1.00 20.00    -0.062 Cl
ENDROOT
BRANCH   4   8
HETATM    8  C8  UNL     1     -32.963   6.228   2.889  1.00 20.00     0.173 C 
HETATM    9  C6  UNL     1     -33.605   7.237   1.924  1.00 20.00     0.218 C 
HETATM   10  O10 UNL     1     -32.301   7.681   1.481  1.00 20.00    -0.384 OA
HETATM   11  C7  UNL     1     -31.690   7.049   2.632  1.00 20.00     0.218 C 
HETATM   12  F11 UNL     1     -32.921   4.955   2.440  1.00 20.00    -0.233 F 
ENDBRANCH   4   8
TORSDOF 1
