REMARK  1 active torsions:
REMARK  status: ('A' for Active; 'I' for Inactive)
REMARK    1  A    between atoms: C1_1  and  C2_2 
ROOT
HETATM    1  C1  UNL     1     -33.883   5.970   5.425  1.00 20.00     0.314 C 
HETATM    2  F3  UNL     1     -34.875   5.083   5.704  1.00 20.00    -0.228 F 
HETATM    3 CL5  UNL     1     -34.257   7.511   6.227  1.00 20.00    -0.085 Cl
ENDROOT
BRANCH   1   4
HETATM    4  C2  UNL     1     -33.783   6.157   3.924  1.00 20.00     0.314 C 
HETATM    5  F4  UNL     1     -33.506   4.963   3.338  1.00 20.00    -0.228 F 
HETATM    6 CL6  UNL     1     -32.486   7.303   3.520  1.00 20.00    -0.085 Cl
ENDBRANCH   1   4
TORSDOF 1
