REMARK  1 active torsions:
REMARK  status: ('A' for Active; 'I' for Inactive)
REMARK    1  A    between atoms: C1_1  and  S3_3 
ROOT
HETATM    1  C1  UNL     1     -33.139   6.344   3.684  1.00 20.00     0.295 C 
HETATM    2  O2  UNL     1     -33.689   5.370   3.182  1.00 20.00    -0.266 OA
HETATM    3 CL4  UNL     1     -32.015   7.398   2.875  1.00 20.00    -0.031 Cl
ENDROOT
BRANCH   1   4
HETATM    4  S3  UNL     1     -33.430   6.823   5.366  1.00 20.00     0.036 SA
HETATM    5 CL5  UNL     1     -34.753   5.394   5.952  1.00 20.00    -0.034 Cl
ENDBRANCH   1   4
TORSDOF 1
