REMARK  2 active torsions:
REMARK  status: ('A' for Active; 'I' for Inactive)
REMARK    1  A    between atoms: C3_3  and  C4_4 
REMARK    2  A    between atoms: C5_5  and  C9_9 
ROOT
HETATM    1  C1  UNL     1     -34.959   5.711   4.858  1.00 20.00    -0.024 C 
HETATM    2  C2  UNL     1     -34.507   5.922   6.105  1.00 20.00    -0.087 C 
HETATM    3  C6  UNL     1     -34.258   6.200   3.623  1.00 20.00     0.036 C 
HETATM    4  C7  UNL     1     -33.253   6.714   6.375  1.00 20.00     0.034 C 
HETATM    5  C8  UNL     1     -32.752   7.505   5.162  1.00 20.00     0.013 C 
HETATM    6  C9  UNL     1     -32.814   6.661   3.884  1.00 20.00     0.018 C 
HETATM    7  C10 UNL     1     -35.220   5.382   7.310  1.00 20.00     0.043 C 
ENDROOT
BRANCH   6   8
HETATM    8  C5  UNL     1     -32.273   7.417   2.708  1.00 20.00    -0.076 C 
HETATM    9  C3  UNL     1     -32.929   7.704   1.570  1.00 20.00     0.044 C 
HETATM   10  C11 UNL     1     -30.846   7.872   2.880  1.00 20.00     0.044 C 
BRANCH   9  11
HETATM   11  C4  UNL     1     -32.368   8.453   0.425  1.00 20.00     0.259 C 
HETATM   12  O12 UNL     1     -33.030   8.677  -0.583  1.00 20.00    -0.302 OA
ENDBRANCH   9  11
ENDBRANCH   6   8
TORSDOF 2
