REMARK  2 active torsions:
REMARK  status: ('A' for Active; 'I' for Inactive)
REMARK    1  A    between atoms: C2_2  and  O6_6 
REMARK    2  A    between atoms: C5_5  and  O6_6 
ROOT
HETATM    1  C1  UNL     1     -31.840   7.604   3.812  1.00 20.00     0.099 A 
HETATM    2  C2  UNL     1     -33.333   7.649   3.658  1.00 20.00     0.181 A 
HETATM    3  C3  UNL     1     -32.478   7.093   2.552  1.00 20.00     0.207 A 
HETATM    4  F7  UNL     1     -32.490   5.712   2.395  1.00 20.00    -0.223 F 
HETATM    5 CL8  UNL     1     -32.298   8.025   1.078  1.00 20.00    -0.080 Cl
ENDROOT
BRANCH   2   6
HETATM    6  O6  UNL     1     -34.074   6.689   4.429  1.00 20.00    -0.382 OA
BRANCH   6   7
HETATM    7  C5  UNL     1     -34.215   7.119   5.771  1.00 20.00     0.164 C 
HETATM    8  C4  UNL     1     -34.999   6.078   6.541  1.00 20.00     0.033 C 
ENDBRANCH   6   7
ENDBRANCH   2   6
TORSDOF 2
