REMARK  2 active torsions:
REMARK  status: ('A' for Active; 'I' for Inactive)
REMARK    1  A    between atoms: C3_3  and  C9_9 
REMARK    2  A    between atoms: C3_3  and  C10_10 
ROOT
HETATM    1  C3  UNL     1     -32.782   6.038   2.758  1.00 20.00     0.135 C 
HETATM    2  O11 UNL     1     -32.481   4.868   2.530  1.00 20.00    -0.297 OA
ENDROOT
BRANCH   1   3
HETATM    3  C9  UNL     1     -32.164   7.197   1.965  1.00 20.00     0.063 C 
HETATM    4  C4  UNL     1     -32.534   7.305   0.460  1.00 20.00     0.045 C 
HETATM    5  C1  UNL     1     -32.595   8.791   0.726  1.00 20.00    -0.088 C 
HETATM    6  C2  UNL     1     -32.550   9.862  -0.067  1.00 20.00     0.014 C 
HETATM    7  C5  UNL     1     -32.736   8.618   2.220  1.00 20.00     0.045 C 
ENDBRANCH   1   3
BRANCH   1   8
HETATM    8  C10 UNL     1     -33.756   6.396   3.803  1.00 20.00     0.056 C 
HETATM    9  C7  UNL     1     -34.177   5.246   4.753  1.00 20.00     0.012 C 
HETATM   10  C6  UNL     1     -34.187   6.288   5.890  1.00 20.00     0.002 C 
HETATM   11  C8  UNL     1     -33.171   7.095   5.056  1.00 20.00     0.012 C 
ENDBRANCH   1   8
TORSDOF 2
