REMARK  1 active torsions:
REMARK  status: ('A' for Active; 'I' for Inactive)
REMARK    1  A    between atoms: C1_1  and  C2_2 
ROOT
HETATM    1  C1  UNL     1     -33.808   6.294   5.341  1.00 20.00     0.314 C 
HETATM    2  F3  UNL     1     -34.916   5.508   5.293  1.00 20.00    -0.228 F 
HETATM    3 CL5  UNL     1     -34.188   7.756   6.277  1.00 20.00    -0.085 Cl
ENDROOT
BRANCH   1   4
HETATM    4  C2  UNL     1     -33.386   6.655   3.931  1.00 20.00     0.314 C 
HETATM    5  F4  UNL     1     -32.279   7.443   3.979  1.00 20.00    -0.228 F 
HETATM    6 CL6  UNL     1     -33.002   5.194   2.996  1.00 20.00    -0.085 Cl
ENDBRANCH   1   4
TORSDOF 1
