REMARK  2 active torsions:
REMARK  status: ('A' for Active; 'I' for Inactive)
REMARK    1  A    between atoms: C2_2  and  O6_6 
REMARK    2  A    between atoms: C5_5  and  O6_6 
ROOT
HETATM    1  C1  UNL     1     -34.417   7.536   5.979  1.00 20.00     0.099 A 
HETATM    2  C2  UNL     1     -33.290   7.093   5.089  1.00 20.00     0.181 A 
HETATM    3  C3  UNL     1     -34.362   6.116   5.489  1.00 20.00     0.207 A 
HETATM    4  F7  UNL     1     -33.989   5.166   6.434  1.00 20.00    -0.223 F 
HETATM    5 CL8  UNL     1     -35.558   5.587   4.321  1.00 20.00    -0.080 Cl
ENDROOT
BRANCH   2   6
HETATM    6  O6  UNL     1     -33.316   7.596   3.744  1.00 20.00    -0.382 OA
BRANCH   6   7
HETATM    7  C5  UNL     1     -32.211   7.114   3.002  1.00 20.00     0.164 C 
HETATM    8  C4  UNL     1     -32.281   7.669   1.595  1.00 20.00     0.033 C 
ENDBRANCH   6   7
ENDBRANCH   2   6
TORSDOF 2
