REMARK  1 active torsions:
REMARK  status: ('A' for Active; 'I' for Inactive)
REMARK    1  A    between atoms: C2_2  and  C6_6 
ROOT
HETATM    1  C3  UNL     1     -34.078   5.945   6.385  1.00 20.00     0.006 C 
HETATM    2  C4  UNL     1     -34.093   4.475   5.949  1.00 20.00     0.006 C 
HETATM    3  C5  UNL     1     -35.622   5.657   4.609  1.00 20.00     0.010 C 
HETATM    4  C6  UNL     1     -33.606   6.729   3.987  1.00 20.00     0.025 C 
HETATM    5  C7  UNL     1     -34.625   6.687   5.149  1.00 20.00    -0.005 C 
HETATM    6  C8  UNL     1     -34.555   4.558   4.483  1.00 20.00    -0.006 C 
HETATM    7  C9  UNL     1     -33.471   5.231   3.573  1.00 20.00    -0.036 C 
HETATM    8  C11 UNL     1     -33.848   5.053   2.086  1.00 20.00     0.016 C 
HETATM    9  C12 UNL     1     -32.073   4.617   3.759  1.00 20.00     0.016 C 
ENDROOT
BRANCH   4  10
HETATM   10  C2  UNL     1     -32.353   7.480   4.310  1.00 20.00    -0.088 C 
HETATM   11  C1  UNL     1     -32.132   8.002   5.526  1.00 20.00     0.014 C 
HETATM   12  C10 UNL     1     -31.357   7.615   3.197  1.00 20.00     0.043 C 
ENDBRANCH   4  10
TORSDOF 1
