REMARK  0 active torsions:
REMARK  status: ('A' for Active; 'I' for Inactive)
ROOT
HETATM    1  C1  UNL     1     -34.070   5.589   4.829  1.00 20.00     0.227 C 
HETATM    2 CL2  UNL     1     -35.782   5.684   4.375  1.00 20.00    -0.076 Cl
HETATM    3 CL3  UNL     1     -33.882   4.658   6.328  1.00 20.00    -0.076 Cl
HETATM    4 BR4  UNL     1     -33.092   4.685   3.403  1.00 20.00    -0.037 Br
HETATM    5 BR5  UNL     1     -33.397   7.395   5.123  1.00 20.00    -0.037 Br
ENDROOT
TORSDOF 0
