REMARK  2 active torsions:
REMARK  status: ('A' for Active; 'I' for Inactive)
REMARK    1  A    between atoms: C1_1  and  C2_2 
REMARK    2  A    between atoms: C1_1  and  C3_3 
ROOT
HETATM    1  C1  UNL     1     -33.792   4.779   3.875  1.00 20.00     0.168 C 
ENDROOT
BRANCH   1   2
HETATM    2  C2  UNL     1     -33.388   5.382   2.543  1.00 20.00     0.360 C 
HETATM    3  F4  UNL     1     -32.432   6.323   2.755  1.00 20.00    -0.214 F 
HETATM    4  F5  UNL     1     -32.825   4.431   1.757  1.00 20.00    -0.214 F 
ENDBRANCH   1   2
BRANCH   1   5
HETATM    5  C3  UNL     1     -34.381   5.777   4.861  1.00 20.00     0.325 C 
HETATM    6  F6  UNL     1     -33.471   6.748   5.129  1.00 20.00    -0.188 F 
HETATM    7  F7  UNL     1     -35.440   6.395   4.276  1.00 20.00    -0.188 F 
HETATM    8 CL8  UNL     1     -34.913   5.024   6.372  1.00 20.00    -0.048 Cl
ENDBRANCH   1   5
TORSDOF 2
