REMARK  2 active torsions:
REMARK  status: ('A' for Active; 'I' for Inactive)
REMARK    1  A    between atoms: C1_1  and  P9_9 
REMARK    2  A    between atoms: C2_2  and  P9_9 
ROOT
HETATM    1  P9  UNL     1     -33.086   6.163   5.025  1.00 20.00     0.209 P 
HETATM    2 CL10 UNL     1     -33.900   8.013   5.589  1.00 20.00    -0.077 Cl
ENDROOT
BRANCH   1   3
HETATM    3  C1  UNL     1     -34.499   5.113   5.039  1.00 20.00     0.429 C 
HETATM    4  F3  UNL     1     -34.135   3.997   4.404  1.00 20.00    -0.165 F 
HETATM    5  F4  UNL     1     -34.772   4.888   6.326  1.00 20.00    -0.165 F 
HETATM    6  F5  UNL     1     -35.491   5.750   4.417  1.00 20.00    -0.165 F 
ENDBRANCH   1   3
BRANCH   1   7
HETATM    7  C2  UNL     1     -32.745   6.410   3.315  1.00 20.00     0.429 C 
HETATM    8  F6  UNL     1     -31.675   7.206   3.264  1.00 20.00    -0.165 F 
HETATM    9  F7  UNL     1     -33.830   7.001   2.809  1.00 20.00    -0.165 F 
HETATM   10  F8  UNL     1     -32.517   5.217   2.765  1.00 20.00    -0.165 F 
ENDBRANCH   1   7
TORSDOF 2
