REMARK  0 active torsions:
REMARK  status: ('A' for Active; 'I' for Inactive)
ROOT
HETATM    1  C1  UNL     1     -32.404   7.670   4.536  1.00 20.00     0.023 C 
HETATM    2  C2  UNL     1     -32.629   7.690   3.217  1.00 20.00     0.047 C 
HETATM    3  C3  UNL     1     -33.387   6.854   5.359  1.00 20.00     0.040 C 
HETATM    4  C4  UNL     1     -31.861   8.423   2.180  1.00 20.00     0.076 C 
HETATM    5  C5  UNL     1     -34.244   7.813   6.193  1.00 20.00     0.029 C 
HETATM    6  C6  UNL     1     -32.659   5.882   6.285  1.00 20.00     0.029 C 
HETATM    7  O7  UNL     1     -33.712   6.937   2.787  1.00 20.00    -0.305 OA
HETATM    8  P8  UNL     1     -34.349   6.048   4.005  1.00 20.00     0.165 P 
HETATM    9  S9  UNL     1     -36.276   5.898   4.070  1.00 20.00    -0.049 SA
HETATM   10 CL10 UNL     1     -33.502   4.259   3.643  1.00 20.00    -0.054 Cl
ENDROOT
TORSDOF 0
