REMARK  0 active torsions:
REMARK  status: ('A' for Active; 'I' for Inactive)
ROOT
HETATM    1  C1  UNL     1     -33.699   6.662   4.045  1.00 20.00    -0.071 C 
HETATM    2  C2  UNL     1     -32.724   7.212   3.312  1.00 20.00    -0.027 C 
HETATM    3  C3  UNL     1     -34.099   4.280   4.557  1.00 20.00     0.009 C 
HETATM    4  C4  UNL     1     -34.724   4.666   5.911  1.00 20.00     0.006 C 
HETATM    5  C5  UNL     1     -35.878   5.823   4.213  1.00 20.00     0.014 C 
HETATM    6  C6  UNL     1     -34.513   5.446   3.643  1.00 20.00     0.015 C 
HETATM    7  C7  UNL     1     -35.330   6.060   5.630  1.00 20.00    -0.002 C 
HETATM    8  C8  UNL     1     -34.230   7.147   5.390  1.00 20.00    -0.021 C 
HETATM    9  C9  UNL     1     -32.293   6.701   1.979  1.00 20.00     0.036 C 
HETATM   10  C10 UNL     1     -34.856   8.550   5.290  1.00 20.00     0.020 C 
HETATM   11  C11 UNL     1     -33.149   7.171   6.481  1.00 20.00     0.020 C 
ENDROOT
TORSDOF 0
