REMARK  0 active torsions:
REMARK  status: ('A' for Active; 'I' for Inactive)
ROOT
HETATM    1  C1  UNL     1     -33.381   6.569   3.917  1.00 20.00    -0.071 C 
HETATM    2  C2  UNL     1     -32.596   7.366   3.185  1.00 20.00    -0.027 C 
HETATM    3  C3  UNL     1     -33.751   6.573   6.359  1.00 20.00     0.009 C 
HETATM    4  C4  UNL     1     -33.999   5.053   6.333  1.00 20.00     0.006 C 
HETATM    5  C5  UNL     1     -35.486   6.065   4.811  1.00 20.00     0.014 C 
HETATM    6  C6  UNL     1     -34.325   7.037   5.009  1.00 20.00     0.015 C 
HETATM    7  C7  UNL     1     -34.592   4.820   4.925  1.00 20.00    -0.002 C 
HETATM    8  C8  UNL     1     -33.536   5.056   3.793  1.00 20.00    -0.021 C 
HETATM    9  C9  UNL     1     -32.535   8.848   3.339  1.00 20.00     0.036 C 
HETATM   10  C10 UNL     1     -32.218   4.304   4.021  1.00 20.00     0.020 C 
HETATM   11  C11 UNL     1     -34.103   4.647   2.420  1.00 20.00     0.020 C 
ENDROOT
TORSDOF 0
