REMARK  1 active torsions:
REMARK  status: ('A' for Active; 'I' for Inactive)
REMARK    1  A    between atoms: C3_3  and  C6_6 
ROOT
HETATM    1  C1  UNL     1     -33.103   7.287   4.983  1.00 20.00     0.055 A 
HETATM    2  C2  UNL     1     -34.901   5.784   5.386  1.00 20.00     0.160 A 
HETATM    3  C3  UNL     1     -32.848   6.616   3.793  1.00 20.00    -0.001 A 
HETATM    4  C4  UNL     1     -34.147   6.870   5.801  1.00 20.00     0.134 A 
HETATM    5  C5  UNL     1     -33.660   5.541   3.468  1.00 20.00     0.133 A 
HETATM    6  N7  UNL     1     -34.684   5.106   4.237  1.00 20.00    -0.245 NA
HETATM    7  F8  UNL     1     -34.415   7.496   6.952  1.00 20.00    -0.205 F 
HETATM    8 CL9  UNL     1     -33.445   4.630   2.025  1.00 20.00    -0.062 Cl
ENDROOT
BRANCH   3   9
HETATM    9  C6  UNL     1     -31.729   7.069   2.920  1.00 20.00     0.156 C 
HETATM   10 CL10 UNL     1     -32.351   7.941   1.500  1.00 20.00    -0.125 Cl
ENDBRANCH   3   9
TORSDOF 1
