REMARK  2 active torsions:
REMARK  status: ('A' for Active; 'I' for Inactive)
REMARK    1  A    between atoms: C7_7  and  O10_10 
REMARK    2  A    between atoms: C8_8  and  O10_10 
ROOT
HETATM    1  C1  UNL     1     -32.730   5.050   2.599  1.00 20.00     0.024 C 
HETATM    2  C2  UNL     1     -33.554   4.524   3.515  1.00 20.00     0.118 C 
HETATM    3  C3  UNL     1     -33.793   6.442   4.704  1.00 20.00     0.188 C 
HETATM    4  C4  UNL     1     -32.641   7.113   3.999  1.00 20.00     0.127 C 
HETATM    5  C7  UNL     1     -32.377   6.502   2.628  1.00 20.00     0.154 C 
HETATM    6  N9  UNL     1     -34.192   5.226   4.504  1.00 20.00    -0.237 NA
HETATM    7  F11 UNL     1     -34.423   7.144   5.656  1.00 20.00    -0.189 F 
ENDROOT
BRANCH   5   8
HETATM    8  O10 UNL     1     -33.151   7.192   1.650  1.00 20.00    -0.376 OA
BRANCH   8   9
HETATM    9  C8  UNL     1     -32.451   8.314   1.132  1.00 20.00     0.122 A 
HETATM   10  C5  UNL     1     -33.133   9.068   0.027  1.00 20.00     0.034 A 
HETATM   11  C6  UNL     1     -33.065   9.658   1.405  1.00 20.00     0.034 A 
ENDBRANCH   8   9
ENDBRANCH   5   8
TORSDOF 2
