REMARK  2 active torsions:
REMARK  status: ('A' for Active; 'I' for Inactive)
REMARK    1  A    between atoms: C7_7  and  O10_10 
REMARK    2  A    between atoms: C8_8  and  O10_10 
ROOT
HETATM    1  C1  UNL     1     -32.534   6.444   2.644  1.00 20.00     0.155 C 
HETATM    2  C2  UNL     1     -32.136   7.388   1.497  1.00 20.00     0.084 C 
HETATM    3  C3  UNL     1     -32.316   8.555   2.494  1.00 20.00     0.047 C 
HETATM    4  C7  UNL     1     -32.414   7.570   3.688  1.00 20.00     0.191 C 
HETATM    5  O9  UNL     1     -32.834   5.270   2.700  1.00 20.00    -0.295 OA
ENDROOT
BRANCH   4   6
HETATM    6  O10 UNL     1     -33.552   7.698   4.519  1.00 20.00    -0.373 OA
BRANCH   6   7
HETATM    7  C8  UNL     1     -33.686   6.559   5.385  1.00 20.00     0.122 C 
HETATM    8  C5  UNL     1     -34.557   6.768   6.646  1.00 20.00     0.032 C 
HETATM    9  C4  UNL     1     -35.090   5.338   6.437  1.00 20.00     0.005 C 
HETATM   10  C6  UNL     1     -34.715   5.489   4.950  1.00 20.00     0.032 C 
ENDBRANCH   6   7
ENDBRANCH   4   6
TORSDOF 2
