REMARK  1 active torsions:
REMARK  status: ('A' for Active; 'I' for Inactive)
REMARK    1  A    between atoms: C1_1  and  C4_4 
ROOT
HETATM    1  C2  UNL     1     -34.437   4.905   5.648  1.00 20.00     0.038 C 
HETATM    2  C3  UNL     1     -34.732   5.808   6.830  1.00 20.00     0.169 C 
HETATM    3  C4  UNL     1     -34.002   7.156   5.064  1.00 20.00     0.190 C 
HETATM    4  C5  UNL     1     -34.534   5.853   4.458  1.00 20.00    -0.013 C 
HETATM    5  C6  UNL     1     -36.007   6.040   4.042  1.00 20.00     0.018 C 
HETATM    6  C7  UNL     1     -33.751   5.346   3.245  1.00 20.00     0.018 C 
HETATM    7  O9  UNL     1     -34.321   7.133   6.464  1.00 20.00    -0.378 OA
ENDROOT
BRANCH   3   8
HETATM    8  C1  UNL     1     -32.512   7.307   5.030  1.00 20.00     0.263 C 
HETATM    9  O8  UNL     1     -31.916   7.938   4.163  1.00 20.00    -0.304 OA
ENDBRANCH   3   8
TORSDOF 1
