REMARK  2 active torsions:
REMARK  status: ('A' for Active; 'I' for Inactive)
REMARK    1  A    between atoms: C8_8  and  O11_11 
REMARK    2  A    between atoms: C9_9  and  O11_11 
ROOT
HETATM    1  C1  UNL     1     -34.641   4.957   4.430  1.00 20.00     0.092 C 
HETATM    2  C2  UNL     1     -34.069   6.660   5.863  1.00 20.00     0.027 C 
HETATM    3  C3  UNL     1     -34.442   7.467   6.869  1.00 20.00     0.040 C 
HETATM    4  C4  UNL     1     -33.711   5.395   3.331  1.00 20.00     0.079 C 
HETATM    5  C5  UNL     1     -32.854   6.981   5.035  1.00 20.00     0.090 C 
HETATM    6  C8  UNL     1     -33.183   6.799   3.560  1.00 20.00     0.132 C 
HETATM    7  N10 UNL     1     -34.797   5.528   5.584  1.00 20.00    -0.270 NA
ENDROOT
BRANCH   6   8
HETATM    8  O11 UNL     1     -32.011   6.984   2.776  1.00 20.00    -0.380 OA
BRANCH   8   9
HETATM    9  C9  UNL     1     -31.866   8.339   2.377  1.00 20.00     0.122 A 
HETATM   10  C6  UNL     1     -31.088   8.577   1.114  1.00 20.00     0.034 A 
HETATM   11  C7  UNL     1     -32.580   8.735   1.117  1.00 20.00     0.034 A 
ENDBRANCH   8   9
ENDBRANCH   6   8
TORSDOF 2
