REMARK  2 active torsions:
REMARK  status: ('A' for Active; 'I' for Inactive)
REMARK    1  A    between atoms: C1_1  and  C3_3 
REMARK    2  A    between atoms: C1_1  and  C5_5 
ROOT
HETATM    1  C2  UNL     1     -34.989   5.441   5.254  1.00 20.00     0.098 A 
HETATM    2  C3  UNL     1     -34.099   6.386   4.473  1.00 20.00     0.134 A 
HETATM    3  C4  UNL     1     -33.901   6.186   5.933  1.00 20.00     0.255 A 
HETATM    4  F7  UNL     1     -34.196   7.194   6.823  1.00 20.00    -0.205 F 
HETATM    5  F8  UNL     1     -32.798   5.520   6.418  1.00 20.00    -0.205 F 
ENDROOT
BRANCH   2   6
HETATM    6  C1  UNL     1     -33.128   5.833   3.525  1.00 20.00     0.146 C 
HETATM    7  O6  UNL     1     -33.313   4.728   3.019  1.00 20.00    -0.297 OA
BRANCH   6   8
HETATM    8  C5  UNL     1     -31.931   6.707   3.236  1.00 20.00     0.164 C 
HETATM    9 BR9  UNL     1     -32.280   7.837   1.701  1.00 20.00    -0.089 Br
ENDBRANCH   6   8
ENDBRANCH   2   6
TORSDOF 2
