REMARK  2 active torsions:
REMARK  status: ('A' for Active; 'I' for Inactive)
REMARK    1  A    between atoms: C7_7  and  P9_9 
REMARK    2  A    between atoms: C8_8  and  P9_9 
ROOT
HETATM    1  P9  UNL     1     -32.437   6.820   4.576  1.00 20.00    -0.001 P 
HETATM    2 CL10 UNL     1     -32.632   8.894   4.368  1.00 20.00    -0.094 Cl
ENDROOT
BRANCH   1   3
HETATM    3  C7  UNL     1     -32.916   6.305   2.829  1.00 20.00    -0.014 C 
HETATM    4  C1  UNL     1     -34.427   6.507   2.646  1.00 20.00     0.021 C 
HETATM    5  C2  UNL     1     -32.150   7.177   1.824  1.00 20.00     0.021 C 
HETATM    6  C3  UNL     1     -32.559   4.827   2.613  1.00 20.00     0.021 C 
ENDBRANCH   1   3
BRANCH   1   7
HETATM    7  C8  UNL     1     -34.013   6.411   5.406  1.00 20.00    -0.014 C 
HETATM    8  C4  UNL     1     -34.297   4.913   5.226  1.00 20.00     0.021 C 
HETATM    9  C5  UNL     1     -33.889   6.741   6.900  1.00 20.00     0.021 C 
HETATM   10  C6  UNL     1     -35.150   7.234   4.783  1.00 20.00     0.021 C 
ENDBRANCH   1   7
TORSDOF 2
