REMARK  0 active torsions:
REMARK  status: ('A' for Active; 'I' for Inactive)
ROOT
HETATM    1  C1  UNL     1     -33.174   4.940   2.549  1.00 20.00     0.012 C 
HETATM    2  C2  UNL     1     -33.730   5.504   3.451  1.00 20.00    -0.110 C 
HETATM    3  C3  UNL     1     -33.515   7.178   5.273  1.00 20.00     0.045 C 
HETATM    4  C4  UNL     1     -34.207   7.304   6.612  1.00 20.00     0.169 C 
HETATM    5  C5  UNL     1     -34.807   5.256   5.679  1.00 20.00     0.184 C 
HETATM    6  C6  UNL     1     -34.407   6.192   4.551  1.00 20.00     0.090 C 
HETATM    7  O7  UNL     1     -34.789   6.024   6.892  1.00 20.00    -0.390 OA
ENDROOT
TORSDOF 0
