REMARK  0 active torsions:
REMARK  status: ('A' for Active; 'I' for Inactive)
ROOT
HETATM    1  C1  UNL     1     -32.626   6.252   2.325  1.00 20.00     0.047 C 
HETATM    2  C2  UNL     1     -32.055   7.311   3.141  1.00 20.00     0.042 C 
HETATM    3  C3  UNL     1     -34.169   6.786   6.127  1.00 20.00     0.010 C 
HETATM    4  C4  UNL     1     -34.494   5.492   6.220  1.00 20.00     0.114 C 
HETATM    5  C5  UNL     1     -33.576   5.443   2.808  1.00 20.00     0.142 C 
HETATM    6  C6  UNL     1     -32.655   7.714   4.275  1.00 20.00     0.107 C 
HETATM    7  C7  UNL     1     -34.035   5.696   4.182  1.00 20.00     0.087 C 
HETATM    8  C8  UNL     1     -33.963   7.128   4.695  1.00 20.00     0.127 C 
HETATM    9  N9  UNL     1     -34.434   4.805   5.036  1.00 20.00    -0.262 NA
HETATM   10  F10 UNL     1     -34.052   4.365   2.165  1.00 20.00    -0.204 F 
HETATM   11  F11 UNL     1     -32.091   8.698   5.008  1.00 20.00    -0.210 F 
ENDROOT
TORSDOF 0
