REMARK  0 active torsions:
REMARK  status: ('A' for Active; 'I' for Inactive)
ROOT
HETATM    1  C1  UNL     1     -32.930   4.824   2.114  1.00 20.00     0.013 C 
HETATM    2  C2  UNL     1     -33.464   5.327   3.064  1.00 20.00    -0.107 C 
HETATM    3  C3  UNL     1     -33.403   7.267   4.583  1.00 20.00     0.048 C 
HETATM    4  C4  UNL     1     -34.023   4.988   5.440  1.00 20.00     0.048 C 
HETATM    5  C5  UNL     1     -33.815   7.812   5.947  1.00 20.00     0.169 C 
HETATM    6  C6  UNL     1     -34.400   5.664   6.754  1.00 20.00     0.169 C 
HETATM    7  C7  UNL     1     -34.123   5.948   4.236  1.00 20.00     0.023 C 
HETATM    8  C8  UNL     1     -35.595   6.211   3.870  1.00 20.00     0.029 C 
HETATM    9  O9  UNL     1     -33.613   6.835   6.965  1.00 20.00    -0.391 OA
ENDROOT
TORSDOF 0
