REMARK  2 active torsions:
REMARK  status: ('A' for Active; 'I' for Inactive)
REMARK    1  A    between atoms: C1_1  and  C4_4 
REMARK    2  A    between atoms: C4_4  and  C5_5 
ROOT
HETATM    1  C2  UNL     1     -34.098   7.835   6.095  1.00 20.00     0.027 A 
HETATM    2  C3  UNL     1     -32.989   6.850   6.310  1.00 20.00     0.027 A 
HETATM    3  C4  UNL     1     -33.869   6.731   5.082  1.00 20.00     0.110 A 
ENDROOT
BRANCH   3   4
HETATM    4  C1  UNL     1     -33.267   7.124   3.785  1.00 20.00     0.249 C 
HETATM    5  O6  UNL     1     -32.202   6.678   3.371  1.00 20.00    -0.306 OA
ENDBRANCH   3   4
BRANCH   3   6
HETATM    6  C5  UNL     1     -34.868   5.602   5.061  1.00 20.00     0.401 C 
HETATM    7  F7  UNL     1     -34.304   4.472   4.588  1.00 20.00    -0.170 F 
HETATM    8  F8  UNL     1     -35.333   5.351   6.301  1.00 20.00    -0.170 F 
HETATM    9  F9  UNL     1     -35.919   5.908   4.273  1.00 20.00    -0.170 F 
ENDBRANCH   3   6
TORSDOF 2
