REMARK  1 active torsions:
REMARK  status: ('A' for Active; 'I' for Inactive)
REMARK    1  A    between atoms: C1_1  and  C4_4 
ROOT
HETATM    1  C2  UNL     1     -33.427   5.630   2.753  1.00 20.00     0.026 C 
HETATM    2  C3  UNL     1     -34.037   7.241   4.497  1.00 20.00     0.026 C 
HETATM    3  C4  UNL     1     -34.396   5.870   3.915  1.00 20.00     0.088 C 
HETATM    4  C5  UNL     1     -32.211   6.445   3.090  1.00 20.00     0.069 A 
HETATM    5  C6  UNL     1     -32.586   7.434   4.161  1.00 20.00     0.069 A 
HETATM    6  C7  UNL     1     -32.154   7.905   2.819  1.00 20.00     0.252 A 
HETATM    7  F10 UNL     1     -33.044   8.503   1.955  1.00 20.00    -0.205 F 
HETATM    8  F11 UNL     1     -30.941   8.537   2.660  1.00 20.00    -0.205 F 
ENDROOT
BRANCH   3   9
HETATM    9  C1  UNL     1     -34.153   4.811   4.978  1.00 20.00     0.177 C 
HETATM   10  O8  UNL     1     -34.352   5.186   6.167  1.00 20.00    -0.648 OA
HETATM   11  O9  UNL     1     -33.783   3.689   4.533  1.00 20.00    -0.648 OA
ENDBRANCH   3   9
TORSDOF 1
