REMARK  1 active torsions:
REMARK  status: ('A' for Active; 'I' for Inactive)
REMARK    1  A    between atoms: C5_5  and  C7_7 
ROOT
HETATM    1  C1  UNL     1     -32.811   7.694   4.193  1.00 20.00     0.071 A 
HETATM    2  C2  UNL     1     -33.344   5.130   3.425  1.00 20.00     0.126 A 
HETATM    3  C3  UNL     1     -33.890   5.586   4.615  1.00 20.00    -0.006 A 
HETATM    4  C4  UNL     1     -33.614   6.894   4.998  1.00 20.00     0.125 A 
HETATM    5  C5  UNL     1     -32.314   7.144   3.023  1.00 20.00     0.051 A 
HETATM    6  C6  UNL     1     -34.744   4.702   5.452  1.00 20.00     0.053 C 
HETATM    7  N8  UNL     1     -32.560   5.878   2.617  1.00 20.00    -0.264 NA
HETATM    8  F9  UNL     1     -34.115   7.389   6.138  1.00 20.00    -0.205 F 
ENDROOT
BRANCH   5   9
HETATM    9  C7  UNL     1     -31.448   7.975   2.135  1.00 20.00     0.173 C 
HETATM   10 CL10 UNL     1     -32.351   8.507   0.698  1.00 20.00    -0.124 Cl
ENDBRANCH   5   9
TORSDOF 1
