REMARK  1 active torsions:
REMARK  status: ('A' for Active; 'I' for Inactive)
REMARK    1  A    between atoms: C6_6  and  C8_8 
ROOT
HETATM    1  C1  UNL     1     -32.558   8.135   3.236  1.00 20.00     0.099 C 
HETATM    2  C2  UNL     1     -33.005   5.731   3.283  1.00 20.00     0.031 A 
HETATM    3  C3  UNL     1     -34.002   7.162   4.954  1.00 20.00     0.046 A 
HETATM    4  C4  UNL     1     -34.435   4.785   4.986  1.00 20.00     0.032 A 
HETATM    5  C5  UNL     1     -33.193   7.000   3.829  1.00 20.00     0.046 A 
HETATM    6  C6  UNL     1     -33.625   4.623   3.861  1.00 20.00    -0.041 A 
HETATM    7  C7  UNL     1     -34.623   6.055   5.532  1.00 20.00     0.036 A 
HETATM    8  N9  UNL     1     -32.043   9.056   2.754  1.00 20.00    -0.191 NA
HETATM    9 CL10 UNL     1     -35.625   6.254   6.918  1.00 20.00    -0.084 Cl
ENDROOT
BRANCH   6  10
HETATM   10  C8  UNL     1     -33.425   3.266   3.276  1.00 20.00     0.153 C 
HETATM   11 CL11 UNL     1     -33.954   2.007   4.415  1.00 20.00    -0.126 Cl
ENDBRANCH   6  10
TORSDOF 1
