REMARK  0 active torsions:
REMARK  status: ('A' for Active; 'I' for Inactive)
ROOT
HETATM    1  C1  UNL     1     -33.084   5.608   3.024  1.00 20.00     0.116 A 
HETATM    2  C2  UNL     1     -33.012   7.716   4.233  1.00 20.00     0.084 A 
HETATM    3  C3  UNL     1     -32.737   6.899   3.079  1.00 20.00     0.124 A 
HETATM    4  C4  UNL     1     -33.633   7.160   5.278  1.00 20.00     0.109 A 
HETATM    5  C5  UNL     1     -33.778   4.991   4.195  1.00 20.00     0.249 A 
HETATM    6  N6  UNL     1     -34.008   5.841   5.268  1.00 20.00    -0.314 N 
HETATM    7  O7  UNL     1     -34.107   3.808   4.170  1.00 20.00    -0.268 OA
HETATM    8  F8  UNL     1     -32.110   7.477   2.033  1.00 20.00    -0.206 F 
HETATM    9 CL9  UNL     1     -34.024   8.001   6.713  1.00 20.00    -0.064 Cl
HETATM   10  H12 UNL     1     -34.476   5.479   6.093  1.00 20.00     0.170 HD
ENDROOT
TORSDOF 0
