REMARK  1 active torsions:
REMARK  status: ('A' for Active; 'I' for Inactive)
REMARK    1  A    between atoms: C1_1  and  C5_5 
ROOT
HETATM    1  C3  UNL     1     -34.650   5.408   6.278  1.00 20.00     0.009 A 
HETATM    2  C4  UNL     1     -33.602   6.423   6.621  1.00 20.00     0.009 A 
HETATM    3  C5  UNL     1     -34.526   6.663   5.458  1.00 20.00     0.009 A 
ENDROOT
BRANCH   3   4
HETATM    4  C1  UNL     1     -33.996   6.574   4.106  1.00 20.00    -0.015 C 
HETATM    5  C2  UNL     1     -32.948   7.283   3.675  1.00 20.00     0.052 C 
HETATM    6 BR6  UNL     1     -32.255   7.185   1.957  1.00 20.00    -0.064 Br
ENDBRANCH   3   4
TORSDOF 1
