REMARK  0 active torsions:
REMARK  status: ('A' for Active; 'I' for Inactive)
ROOT
HETATM    1  C1  UNL     1     -33.101   6.268   2.950  1.00 20.00     0.006 A 
HETATM    2  C2  UNL     1     -33.835   6.141   4.052  1.00 20.00    -0.008 A 
HETATM    3  C3  UNL     1     -33.154   7.025   4.998  1.00 20.00     0.038 A 
HETATM    4  C4  UNL     1     -31.990   7.241   3.159  1.00 20.00     0.177 A 
HETATM    5  C5  UNL     1     -35.023   5.344   4.425  1.00 20.00     0.310 C 
HETATM    6  C6  UNL     1     -33.645   7.090   6.417  1.00 20.00     0.089 C 
HETATM    7  C7  UNL     1     -35.043   6.482   6.562  1.00 20.00     0.276 C 
HETATM    8  N8  UNL     1     -32.113   7.681   4.570  1.00 20.00    -0.290 NA
HETATM    9  N9  UNL     1     -35.159   5.185   5.881  1.00 20.00     0.087 N 
HETATM   10  H19 UNL     1     -36.071   4.778   6.085  1.00 20.00     0.316 HD
ENDROOT
TORSDOF 0
