REMARK  0 active torsions:
REMARK  status: ('A' for Active; 'I' for Inactive)
ROOT
HETATM    1  C1  UNL     1     -34.362   4.358   4.745  1.00 20.00     0.047 C 
HETATM    2  C2  UNL     1     -34.504   5.210   5.915  1.00 20.00     0.042 C 
HETATM    3  C3  UNL     1     -33.234   8.322   4.378  1.00 20.00     0.010 C 
HETATM    4  C4  UNL     1     -32.326   8.019   3.444  1.00 20.00     0.114 C 
HETATM    5  C5  UNL     1     -33.832   4.826   3.609  1.00 20.00     0.142 C 
HETATM    6  C6  UNL     1     -34.401   6.547   5.817  1.00 20.00     0.107 C 
HETATM    7  C7  UNL     1     -33.433   6.241   3.591  1.00 20.00     0.087 C 
HETATM    8  C8  UNL     1     -34.203   7.201   4.489  1.00 20.00     0.127 C 
HETATM    9  N9  UNL     1     -32.438   6.752   2.934  1.00 20.00    -0.262 NA
HETATM   10  F10 UNL     1     -33.547   4.069   2.538  1.00 20.00    -0.204 F 
HETATM   11  F11 UNL     1     -34.534   7.304   6.927  1.00 20.00    -0.210 F 
ENDROOT
TORSDOF 0
