REMARK  2 active torsions:
REMARK  status: ('A' for Active; 'I' for Inactive)
REMARK    1  A    between atoms: C7_7  and  O10_10 
REMARK    2  A    between atoms: C9_9  and  O10_10 
ROOT
HETATM    1  C1  UNL     1     -33.105   4.733   3.341  1.00 20.00     0.000 C 
HETATM    2  C2  UNL     1     -33.693   4.837   4.656  1.00 20.00     0.022 C 
HETATM    3  C3  UNL     1     -33.024   5.800   2.532  1.00 20.00     0.008 C 
HETATM    4  C4  UNL     1     -33.917   6.037   5.210  1.00 20.00     0.048 C 
HETATM    5  C7  UNL     1     -33.525   7.154   2.966  1.00 20.00     0.184 C 
HETATM    6  C8  UNL     1     -33.580   7.318   4.499  1.00 20.00     0.247 C 
HETATM    7  F11 UNL     1     -32.358   7.749   4.934  1.00 20.00    -0.240 F 
HETATM    8 CL12 UNL     1     -34.590   6.183   6.789  1.00 20.00    -0.086 Cl
ENDROOT
BRANCH   5   9
HETATM    9  O10 UNL     1     -32.698   8.181   2.428  1.00 20.00    -0.373 OA
BRANCH   9  10
HETATM   10  C9  UNL     1     -33.159   8.597   1.151  1.00 20.00     0.122 A 
HETATM   11  C5  UNL     1     -32.418   9.741   0.521  1.00 20.00     0.034 A 
HETATM   12  C6  UNL     1     -32.227   8.347   0.000  1.00 20.00     0.034 A 
ENDBRANCH   9  10
ENDBRANCH   5   9
TORSDOF 2
