REMARK  0 active torsions:
REMARK  status: ('A' for Active; 'I' for Inactive)
ROOT
HETATM    1  C1  UNL     1     -33.666   5.292   3.218  1.00 20.00     0.050 C 
HETATM    2  C2  UNL     1     -34.452   4.620   4.325  1.00 20.00     0.171 C 
HETATM    3  C3  UNL     1     -33.118   6.500   3.941  1.00 20.00     0.128 C 
HETATM    4  C4  UNL     1     -34.301   6.893   4.809  1.00 20.00     0.235 C 
HETATM    5  O5  UNL     1     -34.969   5.670   5.158  1.00 20.00    -0.369 OA
HETATM    6 CL6  UNL     1     -32.611   7.784   2.836  1.00 20.00    -0.121 Cl
HETATM    7 CL7  UNL     1     -33.800   7.754   6.273  1.00 20.00    -0.094 Cl
ENDROOT
TORSDOF 0
