REMARK  0 active torsions:
REMARK  status: ('A' for Active; 'I' for Inactive)
ROOT
HETATM    1  C1  UNL     1     -32.624   7.650   3.297  1.00 20.00     0.057 A 
HETATM    2  C2  UNL     1     -33.703   6.924   5.504  1.00 20.00     0.008 A 
HETATM    3  C3  UNL     1     -33.961   4.382   4.286  1.00 20.00     0.143 A 
HETATM    4  C4  UNL     1     -33.247   6.811   4.263  1.00 20.00    -0.005 A 
HETATM    5  C5  UNL     1     -32.437   6.850   2.232  1.00 20.00     0.127 A 
HETATM    6  C6  UNL     1     -33.356   5.526   3.592  1.00 20.00     0.085 A 
HETATM    7  C7  UNL     1     -34.324   5.758   6.222  1.00 20.00     0.176 A 
HETATM    8  N8  UNL     1     -34.404   4.482   5.485  1.00 20.00    -0.296 NA
HETATM    9  N9  UNL     1     -32.876   5.536   2.380  1.00 20.00    -0.235 NA
HETATM   10 CL10 UNL     1     -31.715   7.362   0.771  1.00 20.00    -0.062 Cl
ENDROOT
TORSDOF 0
