REMARK  0 active torsions:
REMARK  status: ('A' for Active; 'I' for Inactive)
ROOT
HETATM    1  C1  UNL     1     -33.976   7.602   6.308  1.00 20.00     0.032 A 
HETATM    2  C2  UNL     1     -33.029   7.619   3.945  1.00 20.00     0.037 A 
HETATM    3  C3  UNL     1     -33.054   5.466   2.786  1.00 20.00     0.003 A 
HETATM    4  C4  UNL     1     -34.476   6.538   6.959  1.00 20.00     0.118 A 
HETATM    5  C5  UNL     1     -33.583   7.095   5.037  1.00 20.00    -0.008 A 
HETATM    6  C6  UNL     1     -32.760   6.779   2.795  1.00 20.00     0.031 A 
HETATM    7  C7  UNL     1     -33.932   5.664   5.098  1.00 20.00     0.048 A 
HETATM    8  C8  UNL     1     -33.682   4.737   3.945  1.00 20.00     0.088 A 
HETATM    9  N9  UNL     1     -34.465   5.342   6.250  1.00 20.00    -0.264 NA
HETATM   10 CL10 UNL     1     -32.041   7.523   1.412  1.00 20.00    -0.085 Cl
ENDROOT
TORSDOF 0
