REMARK  1 active torsions:
REMARK  status: ('A' for Active; 'I' for Inactive)
REMARK    1  A    between atoms: C4_4  and  C6_6 
ROOT
HETATM    1  C1  UNL     1     -33.553   7.194   4.065  1.00 20.00     0.070 A 
HETATM    2  C2  UNL     1     -33.715   4.826   3.927  1.00 20.00     0.129 A 
HETATM    3  C3  UNL     1     -32.517   5.951   2.322  1.00 20.00     0.170 A 
HETATM    4  C4  UNL     1     -34.034   6.000   4.590  1.00 20.00     0.027 A 
HETATM    5  C5  UNL     1     -32.779   7.178   2.909  1.00 20.00     0.190 A 
HETATM    6  N7  UNL     1     -32.967   4.770   2.803  1.00 20.00    -0.268 NA
HETATM    7  O8  UNL     1     -32.324   8.262   2.405  1.00 20.00    -0.287 OA
ENDROOT
BRANCH   4   8
HETATM    8  C6  UNL     1     -34.864   5.983   5.824  1.00 20.00     0.388 C 
HETATM    9  F9  UNL     1     -34.521   7.003   6.656  1.00 20.00    -0.209 F 
HETATM   10  F10 UNL     1     -34.668   4.835   6.527  1.00 20.00    -0.209 F 
ENDBRANCH   4   8
TORSDOF 1
