REMARK  0 active torsions:
REMARK  status: ('A' for Active; 'I' for Inactive)
ROOT
HETATM    1  C1  UNL     1     -33.152   5.961   3.455  1.00 20.00     0.124 C 
HETATM    2  C2  UNL     1     -34.471   5.501   5.166  1.00 20.00     0.044 C 
HETATM    3  C3  UNL     1     -34.955   5.701   6.549  1.00 20.00     0.057 C 
HETATM    4  C4  UNL     1     -34.200   6.998   6.889  1.00 20.00     0.007 C 
HETATM    5  C5  UNL     1     -33.151   7.208   5.774  1.00 20.00     0.016 C 
HETATM    6  C6  UNL     1     -33.854   6.689   4.541  1.00 20.00     0.077 C 
HETATM    7  N7  UNL     1     -33.489   4.712   3.376  1.00 20.00    -0.166 NA
HETATM    8  N8  UNL     1     -34.349   4.406   4.490  1.00 20.00    -0.159 NA
ENDROOT
TORSDOF 0
