REMARK  1 active torsions:
REMARK  status: ('A' for Active; 'I' for Inactive)
REMARK    1  A    between atoms: C1_1  and  C4_4 
ROOT
HETATM    1  C2  UNL     1     -34.708   5.736   6.094  1.00 20.00     0.038 C 
HETATM    2  C3  UNL     1     -34.347   7.205   6.205  1.00 20.00     0.169 C 
HETATM    3  C4  UNL     1     -32.948   6.218   4.629  1.00 20.00     0.190 C 
HETATM    4  C5  UNL     1     -34.224   5.370   4.694  1.00 20.00    -0.013 C 
HETATM    5  C6  UNL     1     -35.282   5.771   3.649  1.00 20.00     0.018 C 
HETATM    6  C7  UNL     1     -33.928   3.875   4.561  1.00 20.00     0.018 C 
HETATM    7  O9  UNL     1     -33.211   7.423   5.356  1.00 20.00    -0.378 OA
ENDROOT
BRANCH   3   8
HETATM    8  C1  UNL     1     -32.513   6.605   3.253  1.00 20.00     0.263 C 
HETATM    9  O8  UNL     1     -32.477   7.765   2.856  1.00 20.00    -0.304 OA
ENDBRANCH   3   8
TORSDOF 1
