REMARK  1 active torsions:
REMARK  status: ('A' for Active; 'I' for Inactive)
REMARK    1  A    between atoms: C4_4  and  C9_9 
ROOT
HETATM    1  C1  UNL     1     -33.203   6.754   2.907  1.00 20.00     0.065 A 
HETATM    2  C2  UNL     1     -32.750   7.655   5.076  1.00 20.00     0.095 A 
HETATM    3  C3  UNL     1     -31.634   8.535   3.206  1.00 20.00     0.142 A 
HETATM    4  C4  UNL     1     -33.437   6.751   4.279  1.00 20.00    -0.031 A 
HETATM    5  C5  UNL     1     -32.293   7.653   2.361  1.00 20.00     0.187 A 
HETATM    6  N10 UNL     1     -31.879   8.510   4.523  1.00 20.00    -0.371 N 
HETATM    7  O11 UNL     1     -32.064   7.670   1.101  1.00 20.00    -0.287 OA
HETATM    8  H24 UNL     1     -31.383   9.166   5.128  1.00 20.00     0.164 HD
ENDROOT
BRANCH   4   9
HETATM    9  C9  UNL     1     -34.438   5.765   4.903  1.00 20.00    -0.023 C 
HETATM   10  C6  UNL     1     -33.992   4.316   4.611  1.00 20.00     0.019 C 
HETATM   11  C7  UNL     1     -35.840   5.995   4.298  1.00 20.00     0.019 C 
HETATM   12  C8  UNL     1     -34.576   5.900   6.436  1.00 20.00     0.019 C 
ENDBRANCH   4   9
TORSDOF 1
