REMARK  2 active torsions:
REMARK  status: ('A' for Active; 'I' for Inactive)
REMARK    1  A    between atoms: C4_4  and  O9_9 
REMARK    2  A    between atoms: C7_7  and  O9_9 
ROOT
HETATM    1  C1  UNL     1     -34.240   5.821   5.857  1.00 20.00     0.155 C 
HETATM    2  C2  UNL     1     -34.489   6.832   6.988  1.00 20.00     0.084 C 
HETATM    3  C3  UNL     1     -33.701   7.859   6.143  1.00 20.00     0.047 C 
HETATM    4  C4  UNL     1     -33.214   6.748   5.178  1.00 20.00     0.191 C 
HETATM    5  O8  UNL     1     -34.686   4.723   5.598  1.00 20.00    -0.295 OA
ENDROOT
BRANCH   4   6
HETATM    6  O9  UNL     1     -33.465   6.960   3.781  1.00 20.00    -0.374 OA
BRANCH   6   7
HETATM    7  C7  UNL     1     -32.308   6.690   3.011  1.00 20.00     0.114 C 
HETATM    8  C5  UNL     1     -32.292   5.217   2.631  1.00 20.00     0.039 C 
HETATM    9  C6  UNL     1     -32.300   7.591   1.785  1.00 20.00     0.039 C 
ENDBRANCH   6   7
ENDBRANCH   4   6
TORSDOF 2
