REMARK  0 active torsions:
REMARK  status: ('A' for Active; 'I' for Inactive)
ROOT
HETATM    1  C1  UNL     1     -34.561   5.552   6.528  1.00 20.00     0.002 C 
HETATM    2  C2  UNL     1     -34.680   4.783   5.435  1.00 20.00     0.028 C 
HETATM    3  C3  UNL     1     -33.768   6.768   6.543  1.00 20.00    -0.003 C 
HETATM    4  C4  UNL     1     -33.375   7.359   5.401  1.00 20.00    -0.011 C 
HETATM    5  C5  UNL     1     -32.681   5.434   2.585  1.00 20.00     0.132 C 
HETATM    6  C6  UNL     1     -32.803   6.703   2.980  1.00 20.00     0.020 C 
HETATM    7  C7  UNL     1     -33.961   5.287   4.247  1.00 20.00     0.046 C 
HETATM    8  C8  UNL     1     -33.798   6.796   4.082  1.00 20.00     0.102 C 
HETATM    9  N9  UNL     1     -33.397   4.545   3.343  1.00 20.00    -0.263 NA
HETATM   10 BR10 UNL     1     -32.040   8.196   2.235  1.00 20.00    -0.053 Br
ENDROOT
TORSDOF 0
