REMARK  1 active torsions:
REMARK  status: ('A' for Active; 'I' for Inactive)
REMARK    1  A    between atoms: C2_2  and  C4_4 
ROOT
HETATM    1  C1  UNL     1     -33.616   5.002   3.104  1.00 20.00     0.026 A 
HETATM    2  C2  UNL     1     -34.001   5.828   4.076  1.00 20.00     0.068 A 
HETATM    3  C3  UNL     1     -32.562   5.735   2.369  1.00 20.00     0.203 A 
HETATM    4  N5  UNL     1     -33.316   7.018   4.057  1.00 20.00    -0.159 NA
HETATM    5  N6  UNL     1     -32.483   7.022   3.107  1.00 20.00    -0.189 NA
ENDROOT
BRANCH   2   6
HETATM    6  C4  UNL     1     -35.041   5.581   5.106  1.00 20.00     0.175 C 
HETATM    7 CL7  UNL     1     -34.248   5.651   6.683  1.00 20.00    -0.124 Cl
ENDBRANCH   2   6
TORSDOF 1
