REMARK  0 active torsions:
REMARK  status: ('A' for Active; 'I' for Inactive)
ROOT
HETATM    1  C1  UNL     1     -33.606   5.431   3.163  1.00 20.00     0.029 C 
HETATM    2  C2  UNL     1     -33.124   7.106   4.442  1.00 20.00     0.029 C 
HETATM    3  C3  UNL     1     -33.545   4.875   5.696  1.00 20.00     0.179 A 
HETATM    4  C4  UNL     1     -35.294   5.829   5.107  1.00 20.00     0.179 A 
HETATM    5  C5  UNL     1     -32.414   6.432   3.230  1.00 20.00     0.059 C 
HETATM    6  C6  UNL     1     -33.895   5.821   4.589  1.00 20.00     0.005 A 
HETATM    7  O7  UNL     1     -34.920   4.914   6.177  1.00 20.00    -0.389 OA
HETATM    8 BR8  UNL     1     -32.162   7.548   1.674  1.00 20.00    -0.091 Br
ENDROOT
TORSDOF 0
