REMARK  2 active torsions:
REMARK  status: ('A' for Active; 'I' for Inactive)
REMARK    1  A    between atoms: C4_4  and  C6_6 
REMARK    2  A    between atoms: C6_6  and  O7_7 
ROOT
HETATM    1  C1  UNL     1     -33.365   7.048   5.057  1.00 20.00     0.013 C 
HETATM    2  C2  UNL     1     -32.240   7.618   4.207  1.00 20.00     0.079 C 
HETATM    3  C3  UNL     1     -33.175   5.786   2.959  1.00 20.00     0.085 C 
HETATM    4  C4  UNL     1     -33.679   5.690   4.411  1.00 20.00     0.015 C 
HETATM    5  C5  UNL     1     -32.662   7.207   2.814  1.00 20.00     0.244 C 
HETATM    6  F8  UNL     1     -33.660   8.013   2.379  1.00 20.00    -0.206 F 
HETATM    7  F9  UNL     1     -31.653   7.293   1.930  1.00 20.00    -0.206 F 
ENDROOT
BRANCH   4   8
HETATM    8  C6  UNL     1     -35.155   5.331   4.506  1.00 20.00     0.168 C 
BRANCH   8   9
HETATM    9  O7  UNL     1     -35.521   5.260   5.874  1.00 20.00    -0.400 OA
HETATM   10  H19 UNL     1     -36.465   5.031   5.903  1.00 20.00     0.209 HD
ENDBRANCH   8   9
ENDBRANCH   4   8
TORSDOF 2
