REMARK  1 active torsions:
REMARK  status: ('A' for Active; 'I' for Inactive)
REMARK    1  A    between atoms: C2_2  and  C7_7 
ROOT
HETATM    1  C1  UNL     1     -33.453   5.416   2.698  1.00 20.00     0.149 A 
HETATM    2  C2  UNL     1     -33.009   6.597   3.359  1.00 20.00    -0.001 A 
HETATM    3  C3  UNL     1     -33.542   6.477   4.611  1.00 20.00     0.039 A 
HETATM    4  C4  UNL     1     -33.637   7.141   5.923  1.00 20.00     0.061 C 
HETATM    5  C5  UNL     1     -34.792   6.347   6.597  1.00 20.00     0.028 C 
HETATM    6  C6  UNL     1     -34.876   4.992   5.866  1.00 20.00     0.151 C 
HETATM    7  N8  UNL     1     -34.205   4.619   3.478  1.00 20.00    -0.184 NA
HETATM    8  N9  UNL     1     -34.225   5.308   4.613  1.00 20.00    -0.274 N 
ENDROOT
BRANCH   2   9
HETATM    9  C7  UNL     1     -32.176   7.681   2.819  1.00 20.00     0.156 C 
HETATM   10 CL10 UNL     1     -33.110   8.730   1.716  1.00 20.00    -0.125 Cl
ENDBRANCH   2   9
TORSDOF 1
