REMARK  0 active torsions:
REMARK  status: ('A' for Active; 'I' for Inactive)
ROOT
HETATM    1  C1  UNL     1     -33.157   5.714   2.659  1.00 20.00     0.004 A 
HETATM    2  C2  UNL     1     -33.580   5.595   3.915  1.00 20.00    -0.036 A 
HETATM    3  C3  UNL     1     -33.131   6.848   4.525  1.00 20.00     0.035 A 
HETATM    4  C4  UNL     1     -32.422   6.994   2.458  1.00 20.00     0.177 A 
HETATM    5  C5  UNL     1     -34.333   4.548   4.637  1.00 20.00     0.040 C 
HETATM    6  C6  UNL     1     -33.487   7.161   5.952  1.00 20.00     0.059 C 
HETATM    7  C7  UNL     1     -34.963   5.102   5.917  1.00 20.00     0.005 C 
HETATM    8  C8  UNL     1     -33.954   5.926   6.721  1.00 20.00     0.006 C 
HETATM    9  N9  UNL     1     -32.471   7.681   3.770  1.00 20.00    -0.290 NA
ENDROOT
TORSDOF 0
