REMARK  1 active torsions:
REMARK  status: ('A' for Active; 'I' for Inactive)
REMARK    1  A    between atoms: C1_1  and  C2_2 
ROOT
HETATM    1  C2  UNL     1     -34.016   6.227   5.316  1.00 20.00     0.285 C 
HETATM    2  F3  UNL     1     -33.771   7.260   6.168  1.00 20.00    -0.204 F 
HETATM    3 CL6  UNL     1     -34.125   4.719   6.275  1.00 20.00    -0.063 Cl
HETATM    4 CL7  UNL     1     -35.611   6.495   4.548  1.00 20.00    -0.063 Cl
ENDROOT
BRANCH   1   5
HETATM    5  C1  UNL     1     -32.897   6.148   4.272  1.00 20.00     0.249 C 
HETATM    6 CL4  UNL     1     -32.782   7.658   3.313  1.00 20.00    -0.102 Cl
HETATM    7 CL5  UNL     1     -33.163   4.803   3.119  1.00 20.00    -0.102 Cl
ENDBRANCH   1   5
TORSDOF 1
