REMARK  2 active torsions:
REMARK  status: ('A' for Active; 'I' for Inactive)
REMARK    1  A    between atoms: C7_7  and  O10_10 
REMARK    2  A    between atoms: C8_8  and  O10_10 
ROOT
HETATM    1  C1  UNL     1     -34.125   5.092   3.959  1.00 20.00     0.153 C 
HETATM    2  C2  UNL     1     -32.340   5.972   2.862  1.00 20.00     0.121 C 
HETATM    3  C3  UNL     1     -34.205   6.074   4.865  1.00 20.00     0.114 C 
HETATM    4  C4  UNL     1     -33.196   7.173   4.910  1.00 20.00     0.109 C 
HETATM    5  C7  UNL     1     -32.456   7.294   3.582  1.00 20.00     0.168 C 
HETATM    6  N9  UNL     1     -33.133   4.958   3.023  1.00 20.00    -0.272 NA
HETATM    7  F11 UNL     1     -35.227   6.075   5.748  1.00 20.00    -0.209 F 
ENDROOT
BRANCH   5   8
HETATM    8  O10 UNL     1     -33.181   8.151   2.710  1.00 20.00    -0.375 OA
BRANCH   8   9
HETATM    9  C8  UNL     1     -32.319   8.817   1.798  1.00 20.00     0.122 A 
HETATM   10  C5  UNL     1     -32.513   8.492   0.344  1.00 20.00     0.034 A 
HETATM   11  C6  UNL     1     -32.970   9.816   0.884  1.00 20.00     0.034 A 
ENDBRANCH   8   9
ENDBRANCH   5   8
TORSDOF 2
