REMARK  0 active torsions:
REMARK  status: ('A' for Active; 'I' for Inactive)
ROOT
HETATM    1  C1  UNL     1     -34.349   4.209   4.390  1.00 20.00     0.032 A 
HETATM    2  C2  UNL     1     -33.197   5.379   2.353  1.00 20.00     0.040 A 
HETATM    3  C3  UNL     1     -32.585   7.614   2.956  1.00 20.00     0.142 A 
HETATM    4  C4  UNL     1     -34.613   4.700   5.651  1.00 20.00     0.093 A 
HETATM    5  C5  UNL     1     -33.708   5.240   3.654  1.00 20.00     0.013 A 
HETATM    6  C6  UNL     1     -32.623   6.602   2.007  1.00 20.00     0.052 A 
HETATM    7  C7  UNL     1     -33.604   6.337   4.504  1.00 20.00     0.139 A 
HETATM    8  C8  UNL     1     -34.252   6.848   6.870  1.00 20.00     0.157 C 
HETATM    9  N9  UNL     1     -33.061   7.537   4.221  1.00 20.00    -0.241 NA
HETATM   10  N10 UNL     1     -34.157   5.991   5.708  1.00 20.00    -0.345 N 
HETATM   11 CL11 UNL     1     -31.975   6.847   0.436  1.00 20.00    -0.083 Cl
ENDROOT
TORSDOF 0
