REMARK  0 active torsions:
REMARK  status: ('A' for Active; 'I' for Inactive)
ROOT
HETATM    1  C1  UNL     1     -33.562   5.298   3.033  1.00 20.00    -0.026 C 
HETATM    2  C2  UNL     1     -34.486   5.179   3.997  1.00 20.00    -0.025 C 
HETATM    3  C3  UNL     1     -32.816   7.493   4.030  1.00 20.00     0.012 C 
HETATM    4  C4  UNL     1     -32.504   6.368   3.029  1.00 20.00     0.004 C 
HETATM    5  C5  UNL     1     -34.554   6.072   5.212  1.00 20.00     0.007 C 
HETATM    6  C6  UNL     1     -33.271   6.929   5.386  1.00 20.00    -0.011 C 
HETATM    7  C7  UNL     1     -32.322   6.950   1.626  1.00 20.00     0.014 C 
HETATM    8  C8  UNL     1     -34.827   5.221   6.457  1.00 20.00     0.014 C 
HETATM    9  C9  UNL     1     -33.479   8.075   6.380  1.00 20.00     0.010 C 
ENDROOT
TORSDOF 0
