REMARK  1 active torsions:
REMARK  status: ('A' for Active; 'I' for Inactive)
REMARK    1  A    between atoms: C3_3  and  C6_6 
ROOT
HETATM    1  C1  UNL     1     -33.115   7.582   5.838  1.00 20.00    -0.025 C 
HETATM    2  C2  UNL     1     -33.841   6.560   6.316  1.00 20.00    -0.026 C 
HETATM    3  C4  UNL     1     -32.621   7.679   4.414  1.00 20.00     0.015 C 
HETATM    4  C5  UNL     1     -34.280   5.382   5.480  1.00 20.00     0.008 C 
HETATM    5  C6  UNL     1     -32.868   6.364   3.636  1.00 20.00     0.066 C 
HETATM    6  C7  UNL     1     -34.222   5.682   3.955  1.00 20.00     0.000 C 
HETATM    7  C9  UNL     1     -33.179   8.948   3.759  1.00 20.00     0.015 C 
HETATM    8  C10 UNL     1     -35.648   4.869   5.937  1.00 20.00     0.014 C 
HETATM    9  C11 UNL     1     -35.441   6.466   3.450  1.00 20.00     0.011 C 
ENDROOT
BRANCH   5  10
HETATM   10  C3  UNL     1     -32.619   6.491   2.160  1.00 20.00     0.128 C 
HETATM   11  C8  UNL     1     -32.703   5.227   1.348  1.00 20.00     0.091 C 
HETATM   12  O12 UNL     1     -32.361   7.576   1.640  1.00 20.00    -0.298 OA
ENDBRANCH   5  10
TORSDOF 1
