REMARK  1 active torsions:
REMARK  status: ('A' for Active; 'I' for Inactive)
REMARK    1  A    between atoms: C3_3  and  C7_7 
ROOT
HETATM    1  C1  UNL     1     -33.467   5.503   3.718  1.00 20.00     0.024 A 
HETATM    2  C2  UNL     1     -33.089   7.809   4.165  1.00 20.00     0.131 A 
HETATM    3  C3  UNL     1     -33.572   6.582   4.590  1.00 20.00     0.024 A 
HETATM    4  C4  UNL     1     -32.889   5.682   2.466  1.00 20.00    -0.021 A 
HETATM    5  C5  UNL     1     -32.437   6.950   2.136  1.00 20.00     0.131 A 
HETATM    6  C6  UNL     1     -32.779   4.524   1.536  1.00 20.00     0.051 C 
HETATM    7  N8  UNL     1     -32.522   8.021   2.956  1.00 20.00    -0.248 NA
HETATM    8 CL11 UNL     1     -31.706   7.297   0.618  1.00 20.00    -0.062 Cl
ENDROOT
BRANCH   3   9
HETATM    9  C7  UNL     1     -34.186   6.423   5.935  1.00 20.00     0.388 C 
HETATM   10  F9  UNL     1     -33.627   7.281   6.831  1.00 20.00    -0.209 F 
HETATM   11  F10 UNL     1     -33.975   5.171   6.423  1.00 20.00    -0.209 F 
ENDBRANCH   3   9
TORSDOF 1
