REMARK  0 active torsions:
REMARK  status: ('A' for Active; 'I' for Inactive)
ROOT
HETATM    1  C1  UNL     1     -32.268   7.426   2.319  1.00 20.00     0.104 C 
HETATM    2  C2  UNL     1     -33.992   4.939   4.483  1.00 20.00     0.107 A 
HETATM    3  C3  UNL     1     -32.884   7.424   4.686  1.00 20.00     0.145 A 
HETATM    4  C4  UNL     1     -32.858   6.793   3.453  1.00 20.00     0.100 A 
HETATM    5  C5  UNL     1     -33.424   5.527   3.358  1.00 20.00     0.142 A 
HETATM    6  C6  UNL     1     -33.967   5.653   5.670  1.00 20.00     0.212 A 
HETATM    7  N7  UNL     1     -31.789   7.941   1.396  1.00 20.00    -0.191 NA
HETATM    8  N8  UNL     1     -33.425   6.885   5.801  1.00 20.00    -0.231 NA
HETATM    9  F9  UNL     1     -33.431   4.864   2.192  1.00 20.00    -0.204 F 
HETATM   10  F10 UNL     1     -34.511   5.098   6.764  1.00 20.00    -0.184 F 
ENDROOT
TORSDOF 0
