REMARK  0 active torsions:
REMARK  status: ('A' for Active; 'I' for Inactive)
ROOT
HETATM    1  C1  UNL     1     -32.301   6.551   1.579  1.00 20.00     0.147 A 
HETATM    2  C2  UNL     1     -32.827   6.139   2.816  1.00 20.00    -0.015 A 
HETATM    3  C3  UNL     1     -33.009   7.309   3.515  1.00 20.00     0.036 A 
HETATM    4  C4  UNL     1     -33.179   4.807   3.361  1.00 20.00     0.043 C 
HETATM    5  C5  UNL     1     -33.526   7.453   4.899  1.00 20.00     0.068 C 
HETATM    6  C6  UNL     1     -33.388   4.882   4.890  1.00 20.00     0.014 C 
HETATM    7  C7  UNL     1     -34.208   6.126   5.366  1.00 20.00    -0.042 C 
HETATM    8  C8  UNL     1     -35.650   6.053   4.824  1.00 20.00     0.015 C 
HETATM    9  C9  UNL     1     -34.275   6.117   6.904  1.00 20.00     0.015 C 
HETATM   10  N10 UNL     1     -32.154   7.879   1.501  1.00 20.00    -0.186 NA
HETATM   11  N11 UNL     1     -32.594   8.314   2.697  1.00 20.00    -0.282 N 
HETATM   12  H25 UNL     1     -32.578   9.309   2.884  1.00 20.00     0.189 HD
ENDROOT
TORSDOF 0
