REMARK  0 active torsions:
REMARK  status: ('A' for Active; 'I' for Inactive)
ROOT
HETATM    1  C1  UNL     1     -34.723   5.620   6.736  1.00 20.00    -0.025 C 
HETATM    2  C2  UNL     1     -34.375   6.913   6.655  1.00 20.00    -0.025 C 
HETATM    3  C3  UNL     1     -33.207   4.530   3.385  1.00 20.00    -0.024 C 
HETATM    4  C4  UNL     1     -32.704   5.464   2.574  1.00 20.00    -0.025 C 
HETATM    5  C5  UNL     1     -35.313   6.351   4.631  1.00 20.00     0.018 C 
HETATM    6  C6  UNL     1     -34.784   5.087   5.322  1.00 20.00     0.016 C 
HETATM    7  C7  UNL     1     -34.196   7.241   5.186  1.00 20.00     0.014 C 
HETATM    8  C8  UNL     1     -33.329   5.004   4.797  1.00 20.00     0.021 C 
HETATM    9  C9  UNL     1     -32.381   6.744   3.285  1.00 20.00     0.009 C 
HETATM   10  C10 UNL     1     -32.899   6.516   4.724  1.00 20.00     0.009 C 
HETATM   11  C11 UNL     1     -32.926   7.973   2.573  1.00 20.00     0.014 C 
ENDROOT
TORSDOF 0
