REMARK  0 active torsions:
REMARK  status: ('A' for Active; 'I' for Inactive)
ROOT
HETATM    1  C1  UNL     1     -33.800   4.280   4.189  1.00 20.00     0.032 C 
HETATM    2  C2  UNL     1     -33.222   4.862   3.134  1.00 20.00     0.028 C 
HETATM    3  C3  UNL     1     -34.668   7.177   6.194  1.00 20.00     0.026 C 
HETATM    4  C4  UNL     1     -34.523   6.186   7.079  1.00 20.00     0.115 C 
HETATM    5  C5  UNL     1     -34.203   5.214   5.246  1.00 20.00     0.062 C 
HETATM    6  C6  UNL     1     -32.947   6.332   3.194  1.00 20.00     0.026 C 
HETATM    7  C7  UNL     1     -34.577   6.613   4.822  1.00 20.00     0.184 C 
HETATM    8  C8  UNL     1     -31.892   6.847   2.249  1.00 20.00     0.070 C 
HETATM    9  N9  UNL     1     -34.251   4.966   6.518  1.00 20.00    -0.263 NA
HETATM   10  N10 UNL     1     -33.519   7.173   3.996  1.00 20.00    -0.279 NA
ENDROOT
TORSDOF 0
