REMARK  0 active torsions:
REMARK  status: ('A' for Active; 'I' for Inactive)
ROOT
HETATM    1  C1  UNL     1     -33.758   5.391   6.636  1.00 20.00    -0.025 C 
HETATM    2  C2  UNL     1     -33.468   6.687   6.409  1.00 20.00    -0.025 C 
HETATM    3  C3  UNL     1     -33.227   4.074   3.328  1.00 20.00    -0.024 C 
HETATM    4  C4  UNL     1     -32.761   4.888   2.352  1.00 20.00    -0.025 C 
HETATM    5  C5  UNL     1     -35.452   6.318   5.386  1.00 20.00     0.018 C 
HETATM    6  C6  UNL     1     -34.735   4.943   5.575  1.00 20.00     0.016 C 
HETATM    7  C7  UNL     1     -34.152   7.086   5.102  1.00 20.00     0.014 C 
HETATM    8  C8  UNL     1     -34.166   4.877   4.148  1.00 20.00     0.021 C 
HETATM    9  C9  UNL     1     -33.204   6.346   2.566  1.00 20.00     0.009 C 
HETATM   10  C10 UNL     1     -33.404   6.226   4.064  1.00 20.00     0.009 C 
HETATM   11  C11 UNL     1     -32.146   7.369   2.191  1.00 20.00     0.014 C 
ENDROOT
TORSDOF 0
