REMARK  2 active torsions:
REMARK  status: ('A' for Active; 'I' for Inactive)
REMARK    1  A    between atoms: C5_5  and  C6_6 
REMARK    2  A    between atoms: C7_7  and  O8_8 
ROOT
HETATM    1  C3  UNL     1     -33.680   7.544   5.929  1.00 20.00     0.010 C 
HETATM    2  C4  UNL     1     -34.666   6.594   6.636  1.00 20.00     0.032 C 
HETATM    3  C6  UNL     1     -33.501   6.451   4.843  1.00 20.00     0.018 C 
HETATM    4  C7  UNL     1     -34.907   5.925   5.264  1.00 20.00     0.122 C 
ENDROOT
BRANCH   3   5
HETATM    5  C5  UNL     1     -33.271   6.867   3.408  1.00 20.00    -0.008 A 
HETATM    6  C1  UNL     1     -31.906   7.138   2.838  1.00 20.00     0.005 A 
HETATM    7  C2  UNL     1     -32.693   5.946   2.368  1.00 20.00     0.005 A 
ENDBRANCH   3   5
BRANCH   4   8
HETATM    8  O8  UNL     1     -35.080   4.497   5.265  1.00 20.00    -0.395 OA
HETATM    9  H20 UNL     1     -35.853   4.325   5.819  1.00 20.00     0.210 HD
ENDBRANCH   4   8
TORSDOF 2
