REMARK  0 active torsions:
REMARK  status: ('A' for Active; 'I' for Inactive)
ROOT
HETATM    1  C1  UNL     1     -34.941   5.131   5.103  1.00 20.00     0.002 C 
HETATM    2  C2  UNL     1     -34.102   4.810   4.106  1.00 20.00     0.028 C 
HETATM    3  C3  UNL     1     -35.000   6.465   5.677  1.00 20.00    -0.003 C 
HETATM    4  C4  UNL     1     -34.016   7.358   5.467  1.00 20.00    -0.012 C 
HETATM    5  C5  UNL     1     -32.279   7.935   3.680  1.00 20.00     0.027 C 
HETATM    6  C6  UNL     1     -32.257   7.355   2.474  1.00 20.00     0.100 C 
HETATM    7  C7  UNL     1     -33.230   5.913   3.657  1.00 20.00     0.047 C 
HETATM    8  C8  UNL     1     -32.813   6.966   4.675  1.00 20.00     0.085 C 
HETATM    9  N9  UNL     1     -32.822   6.105   2.441  1.00 20.00    -0.245 NA
HETATM   10 BR10 UNL     1     -31.617   8.116   0.920  1.00 20.00    -0.029 Br
ENDROOT
TORSDOF 0
