REMARK  0 active torsions:
REMARK  status: ('A' for Active; 'I' for Inactive)
ROOT
HETATM    1  C1  UNL     1     -33.265   4.366   3.420  1.00 20.00     0.008 C 
HETATM    2  C2  UNL     1     -32.543   4.742   2.353  1.00 20.00     0.028 C 
HETATM    3  C3  UNL     1     -33.541   6.619   4.304  1.00 20.00    -0.005 C 
HETATM    4  C4  UNL     1     -32.636   8.365   2.670  1.00 20.00     0.015 C 
HETATM    5  C5  UNL     1     -33.906   5.321   4.322  1.00 20.00    -0.065 C 
HETATM    6  C6  UNL     1     -32.519   8.142   1.354  1.00 20.00     0.028 C 
HETATM    7  C7  UNL     1     -32.431   6.200   2.168  1.00 20.00     0.046 C 
HETATM    8  C8  UNL     1     -32.446   7.085   3.403  1.00 20.00     0.085 C 
HETATM    9  C9  UNL     1     -34.952   4.782   5.248  1.00 20.00     0.048 C 
HETATM   10  C10 UNL     1     -32.583   9.163   0.275  1.00 20.00     0.070 C 
HETATM   11  N11 UNL     1     -32.375   6.815   1.027  1.00 20.00    -0.258 NA
ENDROOT
TORSDOF 0
