REMARK  0 active torsions:
REMARK  status: ('A' for Active; 'I' for Inactive)
ROOT
HETATM    1  C1  UNL     1     -34.225   6.913   6.512  1.00 20.00     0.002 C 
HETATM    2  C2  UNL     1     -33.080   7.386   5.995  1.00 20.00     0.030 C 
HETATM    3  C3  UNL     1     -35.162   6.115   5.738  1.00 20.00    -0.001 C 
HETATM    4  C4  UNL     1     -34.800   5.550   4.573  1.00 20.00     0.006 C 
HETATM    5  C5  UNL     1     -32.845   7.004   4.596  1.00 20.00     0.066 C 
HETATM    6  C6  UNL     1     -32.529   6.972   2.533  1.00 20.00     0.219 C 
HETATM    7  C7  UNL     1     -33.401   5.703   4.077  1.00 20.00     0.186 C 
HETATM    8  N8  UNL     1     -32.242   7.673   3.677  1.00 20.00    -0.221 NA
HETATM    9  N9  UNL     1     -33.253   5.894   2.623  1.00 20.00    -0.245 NA
HETATM   10 CL10 UNL     1     -32.000   7.569   1.033  1.00 20.00    -0.041 Cl
ENDROOT
TORSDOF 0
