REMARK  0 active torsions:
REMARK  status: ('A' for Active; 'I' for Inactive)
ROOT
HETATM    1  C1  UNL     1     -34.878   5.006   6.214  1.00 20.00     0.002 C 
HETATM    2  C2  UNL     1     -34.781   4.831   4.886  1.00 20.00     0.028 C 
HETATM    3  C3  UNL     1     -34.166   6.058   6.919  1.00 20.00    -0.003 C 
HETATM    4  C4  UNL     1     -33.629   7.099   6.259  1.00 20.00    -0.012 C 
HETATM    5  C5  UNL     1     -32.634   7.625   3.961  1.00 20.00     0.007 C 
HETATM    6  C6  UNL     1     -32.392   6.683   3.044  1.00 20.00     0.114 C 
HETATM    7  C7  UNL     1     -33.914   5.810   4.200  1.00 20.00     0.045 C 
HETATM    8  C8  UNL     1     -33.805   7.214   4.781  1.00 20.00     0.084 C 
HETATM    9  N9  UNL     1     -33.176   5.566   3.160  1.00 20.00    -0.265 NA
ENDROOT
TORSDOF 0
