REMARK  1 active torsions:
REMARK  status: ('A' for Active; 'I' for Inactive)
REMARK    1  A    between atoms: C4_4  and  C8_8 
ROOT
HETATM    1  C1  UNL     1     -32.492   6.416   2.266  1.00 20.00     0.079 A 
HETATM    2  C2  UNL     1     -32.799   7.505   4.510  1.00 20.00     0.088 A 
HETATM    3  C3  UNL     1     -33.244   5.426   2.748  1.00 20.00     0.146 A 
HETATM    4  C4  UNL     1     -33.545   6.448   4.880  1.00 20.00     0.064 A 
HETATM    5  C5  UNL     1     -32.213   7.561   3.153  1.00 20.00     0.176 A 
HETATM    6  O10 UNL     1     -31.531   8.509   2.786  1.00 20.00    -0.288 OA
HETATM    7  O11 UNL     1     -33.783   5.384   4.010  1.00 20.00    -0.326 OA
ENDROOT
BRANCH   4   8
HETATM    8  C8  UNL     1     -34.155   6.340   6.226  1.00 20.00     0.006 A 
HETATM    9  C6  UNL     1     -33.739   5.155   7.063  1.00 20.00     0.017 A 
HETATM   10  C7  UNL     1     -35.105   5.189   6.447  1.00 20.00     0.017 A 
HETATM   11  C9  UNL     1     -34.435   7.640   6.919  1.00 20.00     0.022 C 
ENDBRANCH   4   8
TORSDOF 1
