REMARK  0 active torsions:
REMARK  status: ('A' for Active; 'I' for Inactive)
ROOT
HETATM    1  C1  UNL     1     -33.807   7.377   5.927  1.00 20.00     0.108 C 
HETATM    2  C2  UNL     1     -33.832   7.283   4.389  1.00 20.00     0.241 C 
HETATM    3  C3  UNL     1     -34.575   5.931   4.536  1.00 20.00     0.321 C 
HETATM    4  C4  UNL     1     -34.047   5.845   6.006  1.00 20.00     0.249 C 
HETATM    5  O5  UNL     1     -32.552   7.166   3.819  1.00 20.00    -0.229 OA
HETATM    6  F6  UNL     1     -34.183   4.921   3.724  1.00 20.00    -0.198 F 
HETATM    7  F7  UNL     1     -35.921   6.019   4.408  1.00 20.00    -0.198 F 
HETATM    8  F8  UNL     1     -32.903   5.120   6.128  1.00 20.00    -0.219 F 
HETATM    9 CL9  UNL     1     -35.206   5.294   7.243  1.00 20.00    -0.076 Cl
ENDROOT
TORSDOF 0
