REMARK  0 active torsions:
REMARK  status: ('A' for Active; 'I' for Inactive)
ROOT
HETATM    1  C1  UNL     1     -34.759   5.371   6.047  1.00 20.00    -0.025 C 
HETATM    2  C2  UNL     1     -34.223   6.559   6.387  1.00 20.00    -0.025 C 
HETATM    3  C3  UNL     1     -33.076   4.832   2.896  1.00 20.00    -0.024 C 
HETATM    4  C4  UNL     1     -32.123   5.705   2.496  1.00 20.00    -0.025 C 
HETATM    5  C5  UNL     1     -35.614   6.993   4.659  1.00 20.00     0.018 C 
HETATM    6  C6  UNL     1     -35.246   5.475   4.620  1.00 20.00     0.016 C 
HETATM    7  C7  UNL     1     -34.222   7.436   5.135  1.00 20.00     0.014 C 
HETATM    8  C8  UNL     1     -34.143   5.620   3.558  1.00 20.00     0.021 C 
HETATM    9  C9  UNL     1     -32.347   7.118   3.058  1.00 20.00     0.009 C 
HETATM   10  C10 UNL     1     -33.233   6.693   4.214  1.00 20.00     0.009 C 
HETATM   11  C11 UNL     1     -32.951   8.105   2.075  1.00 20.00     0.014 C 
ENDROOT
TORSDOF 0
