REMARK  0 active torsions:
REMARK  status: ('A' for Active; 'I' for Inactive)
ROOT
HETATM    1  C1  UNL     1     -34.319   5.091   5.091  1.00 20.00     0.031 C 
HETATM    2  C2  UNL     1     -34.756   6.013   6.218  1.00 20.00     0.075 C 
HETATM    3  C3  UNL     1     -32.995   7.042   4.465  1.00 20.00     0.094 C 
HETATM    4  C4  UNL     1     -33.960   5.999   3.922  1.00 20.00     0.092 C 
HETATM    5  S5  UNL     1     -33.645   7.445   6.113  1.00 20.00    -0.168 SA
HETATM    6 CL6  UNL     1     -33.223   5.076   2.594  1.00 20.00    -0.124 Cl
ENDROOT
TORSDOF 0
