REMARK  1 active torsions:
REMARK  status: ('A' for Active; 'I' for Inactive)
REMARK    1  A    between atoms: C4_4  and  C11_11 
ROOT
HETATM    1  C1  UNL     1     -33.266   4.526   3.054  1.00 20.00     0.003 A 
HETATM    2  C2  UNL     1     -32.853   5.758   2.522  1.00 20.00     0.008 A 
HETATM    3  C3  UNL     1     -33.839   4.454   4.326  1.00 20.00     0.029 A 
HETATM    4  C4  UNL     1     -33.002   6.935   3.258  1.00 20.00    -0.045 A 
HETATM    5  C5  UNL     1     -33.580   6.848   4.512  1.00 20.00    -0.024 A 
HETATM    6  C6  UNL     1     -34.011   5.628   5.038  1.00 20.00     0.035 A 
HETATM    7  C7  UNL     1     -33.803   7.927   5.521  1.00 20.00     0.061 C 
HETATM    8  C10 UNL     1     -34.668   7.194   6.569  1.00 20.00     0.124 C 
HETATM    9  N12 UNL     1     -34.506   5.764   6.334  1.00 20.00    -0.389 N 
HETATM   10  H25 UNL     1     -35.097   5.063   6.758  1.00 20.00     0.159 HD
ENDROOT
BRANCH   4  11
HETATM   11  C11 UNL     1     -32.540   8.236   2.702  1.00 20.00     0.019 A 
HETATM   12  C8  UNL     1     -32.654   8.483   1.219  1.00 20.00     0.010 A 
HETATM   13  C9  UNL     1     -31.307   8.269   1.836  1.00 20.00     0.010 A 
ENDBRANCH   4  11
TORSDOF 1
