REMARK  1 active torsions:
REMARK  status: ('A' for Active; 'I' for Inactive)
REMARK    1  A    between atoms: C6_6  and  C11_11 
ROOT
HETATM    1  C1  UNL     1     -33.076   5.137   2.313  1.00 20.00     0.003 C 
HETATM    2  C2  UNL     1     -33.823   4.765   3.363  1.00 20.00    -0.016 C 
HETATM    3  C3  UNL     1     -32.640   7.338   3.218  1.00 20.00    -0.019 C 
HETATM    4  C4  UNL     1     -32.578   6.492   2.176  1.00 20.00    -0.066 C 
HETATM    5  C5  UNL     1     -33.219   6.935   4.547  1.00 20.00     0.041 C 
HETATM    6  C6  UNL     1     -34.194   5.722   4.482  1.00 20.00    -0.020 C 
HETATM    7  C7  UNL     1     -31.979   6.867   0.856  1.00 20.00     0.048 C 
HETATM    8  C8  UNL     1     -35.631   6.217   4.226  1.00 20.00     0.020 C 
ENDROOT
BRANCH   6   9
HETATM    9  C11 UNL     1     -34.160   4.982   5.830  1.00 20.00    -0.011 C 
HETATM   10  C9  UNL     1     -32.774   4.401   6.073  1.00 20.00     0.010 C 
HETATM   11  C10 UNL     1     -34.565   5.924   6.954  1.00 20.00     0.010 C 
ENDBRANCH   6   9
TORSDOF 1
