REMARK  1 active torsions:
REMARK  status: ('A' for Active; 'I' for Inactive)
REMARK    1  A    between atoms: C2_2  and  C12_12 
ROOT
HETATM    1  C1  UNL     1     -32.836   4.911   3.184  1.00 20.00    -0.023 C 
HETATM    2  C2  UNL     1     -32.872   6.243   3.383  1.00 20.00    -0.075 C 
HETATM    3  C3  UNL     1     -33.793   3.992   3.914  1.00 20.00     0.033 C 
HETATM    4  C4  UNL     1     -35.305   6.035   4.012  1.00 20.00     0.015 C 
HETATM    5  C5  UNL     1     -33.933   6.733   4.336  1.00 20.00     0.023 C 
HETATM    6  C6  UNL     1     -34.715   4.833   4.823  1.00 20.00    -0.002 C 
HETATM    7  C7  UNL     1     -33.983   5.931   5.714  1.00 20.00    -0.036 C 
HETATM    8  C8  UNL     1     -32.653   5.535   6.368  1.00 20.00     0.016 C 
HETATM    9  C9  UNL     1     -34.858   6.577   6.806  1.00 20.00     0.016 C 
ENDROOT
BRANCH   2  10
HETATM   10  C12 UNL     1     -31.965   7.233   2.734  1.00 20.00     0.006 C 
HETATM   11  C10 UNL     1     -32.766   8.217   1.882  1.00 20.00     0.014 C 
HETATM   12  C11 UNL     1     -31.130   7.979   3.775  1.00 20.00     0.014 C 
ENDBRANCH   2  10
TORSDOF 1
