REMARK  0 active torsions:
REMARK  status: ('A' for Active; 'I' for Inactive)
ROOT
HETATM    1  C1  UNL     1     -33.793   7.220   4.865  1.00 20.00     0.022 A 
HETATM    2  C2  UNL     1     -33.785   4.987   3.701  1.00 20.00     0.022 A 
HETATM    3  C3  UNL     1     -32.794   7.633   4.072  1.00 20.00     0.054 A 
HETATM    4  C4  UNL     1     -32.786   5.406   2.911  1.00 20.00     0.054 A 
HETATM    5  C5  UNL     1     -34.396   5.838   4.788  1.00 20.00     0.135 A 
HETATM    6  C6  UNL     1     -32.168   6.768   3.019  1.00 20.00     0.280 A 
HETATM    7  C7  UNL     1     -34.254   5.135   6.138  1.00 20.00     0.061 C 
HETATM    8  F8  UNL     1     -35.735   5.961   4.543  1.00 20.00    -0.234 F 
HETATM    9  F9  UNL     1     -30.834   6.641   3.271  1.00 20.00    -0.197 F 
HETATM   10  F10 UNL     1     -32.250   7.397   1.812  1.00 20.00    -0.197 F 
ENDROOT
TORSDOF 0
