REMARK  0 active torsions:
REMARK  status: ('A' for Active; 'I' for Inactive)
ROOT
HETATM    1  C1  UNL     1     -33.022   5.168   3.670  1.00 20.00     0.005 C 
HETATM    2  C2  UNL     1     -34.735   6.984   3.528  1.00 20.00     0.005 C 
HETATM    3  C3  UNL     1     -34.061   4.241   4.320  1.00 20.00     0.011 C 
HETATM    4  C4  UNL     1     -35.771   6.056   4.180  1.00 20.00     0.011 C 
HETATM    5  C5  UNL     1     -33.277   6.795   5.554  1.00 20.00     0.084 C 
HETATM    6  C6  UNL     1     -33.319   6.636   4.022  1.00 20.00    -0.009 C 
HETATM    7  C7  UNL     1     -35.074   5.068   5.131  1.00 20.00     0.058 C 
HETATM    8  C8  UNL     1     -34.311   5.869   6.192  1.00 20.00     0.247 C 
HETATM    9  F9  UNL     1     -33.696   5.021   7.054  1.00 20.00    -0.206 F 
HETATM   10  F10 UNL     1     -35.183   6.598   6.933  1.00 20.00    -0.206 F 
ENDROOT
TORSDOF 0
