REMARK  2 active torsions:
REMARK  status: ('A' for Active; 'I' for Inactive)
REMARK    1  A    between atoms: C6_6  and  C10_10 
REMARK    2  A    between atoms: C7_7  and  C11_11 
ROOT
HETATM    1  C1  UNL     1     -33.894   5.953   6.573  1.00 20.00    -0.025 C 
HETATM    2  C2  UNL     1     -34.532   5.113   5.746  1.00 20.00    -0.025 C 
HETATM    3  C3  UNL     1     -35.277   7.239   5.252  1.00 20.00     0.017 C 
HETATM    4  C4  UNL     1     -33.898   7.317   5.918  1.00 20.00     0.013 C 
HETATM    5  C5  UNL     1     -34.968   5.915   4.542  1.00 20.00     0.013 C 
HETATM    6  C6  UNL     1     -32.932   7.240   4.703  1.00 20.00    -0.002 C 
HETATM    7  C7  UNL     1     -33.733   6.336   3.700  1.00 20.00    -0.002 C 
ENDROOT
BRANCH   6   8
HETATM    8  C10 UNL     1     -32.622   8.612   4.114  1.00 20.00     0.001 C 
HETATM    9  C8  UNL     1     -31.740   8.513   2.912  1.00 20.00     0.005 C 
ENDBRANCH   6   8
BRANCH   7  10
HETATM   10  C11 UNL     1     -32.914   5.175   3.151  1.00 20.00     0.001 C 
HETATM   11  C9  UNL     1     -33.720   4.309   2.237  1.00 20.00     0.005 C 
ENDBRANCH   7  10
TORSDOF 2
