REMARK  0 active torsions:
REMARK  status: ('A' for Active; 'I' for Inactive)
ROOT
HETATM    1  C1  UNL     1     -31.430   8.322   3.411  1.00 20.00     0.013 C 
HETATM    2  C2  UNL     1     -32.408   7.716   3.751  1.00 20.00    -0.103 C 
HETATM    3  C3  UNL     1     -34.551   4.650   5.641  1.00 20.00    -0.004 C 
HETATM    4  C4  UNL     1     -34.036   4.501   4.303  1.00 20.00     0.004 C 
HETATM    5  C5  UNL     1     -34.374   5.785   6.327  1.00 20.00    -0.025 C 
HETATM    6  C6  UNL     1     -33.596   5.550   3.581  1.00 20.00    -0.063 C 
HETATM    7  C7  UNL     1     -33.649   6.957   5.732  1.00 20.00     0.054 C 
HETATM    8  C8  UNL     1     -33.616   6.968   4.170  1.00 20.00     0.045 C 
HETATM    9  C9  UNL     1     -33.126   5.347   2.163  1.00 20.00     0.045 C 
HETATM   10  C10 UNL     1     -34.862   7.705   3.638  1.00 20.00     0.034 C 
ENDROOT
TORSDOF 0
