REMARK  1 active torsions:
REMARK  status: ('A' for Active; 'I' for Inactive)
REMARK    1  A    between atoms: C5_5  and  C6_6 
ROOT
HETATM    1  C1  UNL     1     -35.139   5.653   4.109  1.00 20.00     0.024 A 
HETATM    2  C2  UNL     1     -34.241   4.896   6.452  1.00 20.00     0.275 C 
HETATM    3  C3  UNL     1     -33.810   7.142   5.796  1.00 20.00     0.285 C 
HETATM    4  C4  UNL     1     -34.141   4.916   4.963  1.00 20.00     0.030 A 
HETATM    5  C5  UNL     1     -33.847   6.309   4.545  1.00 20.00     0.051 A 
HETATM    6  N7  UNL     1     -34.410   6.306   6.859  1.00 20.00     0.084 N 
HETATM    7  H18 UNL     1     -35.411   6.506   6.886  1.00 20.00     0.315 HD
ENDROOT
BRANCH   5   8
HETATM    8  C6  UNL     1     -32.798   6.585   3.514  1.00 20.00     0.363 C 
HETATM    9  F8  UNL     1     -33.004   7.807   2.957  1.00 20.00    -0.214 F 
HETATM   10  F9  UNL     1     -32.891   5.681   2.504  1.00 20.00    -0.214 F 
ENDBRANCH   5   8
TORSDOF 1
