REMARK  1 active torsions:
REMARK  status: ('A' for Active; 'I' for Inactive)
REMARK    1  A    between atoms: C3_3  and  C8_8 
ROOT
HETATM    1  C1  UNL     1     -32.903   5.703   6.798  1.00 20.00    -0.025 C 
HETATM    2  C2  UNL     1     -33.937   4.924   6.453  1.00 20.00    -0.024 C 
HETATM    3  C4  UNL     1     -34.762   7.057   6.694  1.00 20.00     0.018 C 
HETATM    4  C5  UNL     1     -33.259   7.119   6.405  1.00 20.00     0.013 C 
HETATM    5  C6  UNL     1     -34.982   5.818   5.816  1.00 20.00     0.024 C 
HETATM    6  C7  UNL     1     -33.221   7.204   4.850  1.00 20.00     0.004 C 
HETATM    7  C8  UNL     1     -34.467   6.324   4.431  1.00 20.00     0.020 C 
HETATM    8  C9  UNL     1     -33.235   8.652   4.367  1.00 20.00     0.012 C 
HETATM    9  C10 UNL     1     -35.571   7.054   3.658  1.00 20.00     0.024 C 
ENDROOT
BRANCH   7  10
HETATM   10  C3  UNL     1     -34.035   5.175   3.554  1.00 20.00     0.241 C 
HETATM   11  O11 UNL     1     -32.895   5.049   3.117  1.00 20.00    -0.306 OA
ENDBRANCH   7  10
TORSDOF 1
