REMARK  1 active torsions:
REMARK  status: ('A' for Active; 'I' for Inactive)
REMARK    1  A    between atoms: C8_8  and  C9_9 
ROOT
HETATM    1  C1  UNL     1     -33.923   4.626   2.585  1.00 20.00     0.014 C 
HETATM    2  C2  UNL     1     -34.117   7.043   6.267  1.00 20.00     0.014 C 
HETATM    3  C3  UNL     1     -33.557   5.616   3.156  1.00 20.00    -0.094 C 
HETATM    4  C4  UNL     1     -33.663   6.932   5.162  1.00 20.00    -0.094 C 
HETATM    5  C7  UNL     1     -31.707   7.275   3.601  1.00 20.00     0.043 A 
HETATM    6  C9  UNL     1     -32.861   8.070   3.045  1.00 20.00     0.025 A 
HETATM    7  C10 UNL     1     -33.120   6.800   3.839  1.00 20.00     0.089 A 
ENDROOT
BRANCH   6   8
HETATM    8  C8  UNL     1     -33.106   8.213   1.548  1.00 20.00    -0.008 A 
HETATM    9  C5  UNL     1     -32.719   9.444   0.777  1.00 20.00     0.005 A 
HETATM   10  C6  UNL     1     -31.997   8.148   0.535  1.00 20.00     0.005 A 
ENDBRANCH   6   8
TORSDOF 1
