REMARK  0 active torsions:
REMARK  status: ('A' for Active; 'I' for Inactive)
ROOT
HETATM    1  C1  UNL     1     -31.781   7.962   1.260  1.00 20.00     0.012 C 
HETATM    2  C2  UNL     1     -34.206   7.074   7.037  1.00 20.00     0.012 C 
HETATM    3  C3  UNL     1     -32.306   7.386   2.173  1.00 20.00    -0.113 C 
HETATM    4  C4  UNL     1     -34.626   6.799   5.947  1.00 20.00    -0.113 C 
HETATM    5  C5  UNL     1     -33.689   4.413   4.143  1.00 20.00     0.002 C 
HETATM    6  C6  UNL     1     -32.970   5.171   3.031  1.00 20.00     0.017 C 
HETATM    7  C7  UNL     1     -35.104   4.946   4.368  1.00 20.00     0.017 C 
HETATM    8  C8  UNL     1     -34.374   7.218   3.514  1.00 20.00     0.034 C 
HETATM    9  C9  UNL     1     -32.951   6.680   3.295  1.00 20.00     0.065 C 
HETATM   10  C10 UNL     1     -35.142   6.461   4.607  1.00 20.00     0.065 C 
ENDROOT
TORSDOF 0
