REMARK  1 active torsions:
REMARK  status: ('A' for Active; 'I' for Inactive)
REMARK    1  A    between atoms: C6_6  and  C10_10 
ROOT
HETATM    1  C1  UNL     1     -31.954   7.658   1.545  1.00 20.00     0.017 C 
HETATM    2  C2  UNL     1     -32.507   6.956   2.346  1.00 20.00    -0.083 C 
HETATM    3  C3  UNL     1     -33.989   6.682   4.200  1.00 20.00    -0.002 C 
HETATM    4  C4  UNL     1     -33.162   6.121   3.299  1.00 20.00    -0.009 C 
HETATM    5  C7  UNL     1     -32.928   4.633   3.248  1.00 20.00     0.048 C 
HETATM    6  C8  UNL     1     -33.971   3.830   4.028  1.00 20.00     0.006 C 
HETATM    7  C9  UNL     1     -34.227   4.456   5.395  1.00 20.00     0.012 C 
HETATM    8  C10 UNL     1     -34.732   5.901   5.256  1.00 20.00     0.031 C 
ENDROOT
BRANCH   8   9
HETATM    9  C6  UNL     1     -34.673   6.584   6.589  1.00 20.00    -0.028 C 
HETATM   10  C5  UNL     1     -33.643   7.330   7.003  1.00 20.00     0.007 C 
ENDBRANCH   8   9
TORSDOF 1
