REMARK  1 active torsions:
REMARK  status: ('A' for Active; 'I' for Inactive)
REMARK    1  A    between atoms: C1_1  and  C5_5 
ROOT
HETATM    1  C1  UNL     1     -33.245   7.185   3.889  1.00 20.00    -0.097 C 
HETATM    2  C2  UNL     1     -32.646   7.512   2.901  1.00 20.00    -0.110 C 
HETATM    3  C7  UNL     1     -31.915   7.911   1.699  1.00 20.00     0.112 C 
ENDROOT
BRANCH   1   4
HETATM    4  C5  UNL     1     -33.974   6.785   5.090  1.00 20.00     0.027 C 
HETATM    5  C3  UNL     1     -35.491   7.151   5.027  1.00 20.00     0.024 C 
HETATM    6  C4  UNL     1     -35.783   5.731   4.503  1.00 20.00     0.012 C 
HETATM    7  C6  UNL     1     -34.437   5.258   5.130  1.00 20.00    -0.029 C 
HETATM    8  C9  UNL     1     -33.669   4.273   4.244  1.00 20.00     0.016 C 
HETATM    9  C10 UNL     1     -34.638   4.646   6.525  1.00 20.00     0.016 C 
HETATM   10  C8  UNL     1     -33.260   7.337   6.322  1.00 20.00     0.030 C 
ENDBRANCH   1   4
TORSDOF 1
