REMARK  0 active torsions:
REMARK  status: ('A' for Active; 'I' for Inactive)
ROOT
HETATM    1  C1  UNL     1     -31.958   7.673   1.431  1.00 20.00     0.003 A 
HETATM    2  C2  UNL     1     -32.402   6.410   1.359  1.00 20.00     0.034 A 
HETATM    3  C3  UNL     1     -32.250   8.293   2.702  1.00 20.00     0.018 A 
HETATM    4  C4  UNL     1     -34.851   5.722   6.691  1.00 20.00     0.014 A 
HETATM    5  C5  UNL     1     -34.609   5.096   5.531  1.00 20.00     0.118 A 
HETATM    6  C6  UNL     1     -32.891   7.425   3.471  1.00 20.00     0.042 A 
HETATM    7  C7  UNL     1     -33.018   6.198   2.664  1.00 20.00     0.091 A 
HETATM    8  C8  UNL     1     -33.539   7.072   4.728  1.00 20.00     0.158 A 
HETATM    9  C9  UNL     1     -34.404   7.154   6.905  1.00 20.00     0.180 A 
HETATM   10  N10 UNL     1     -33.630   5.226   3.269  1.00 20.00    -0.166 NA
HETATM   11  N11 UNL     1     -33.693   7.807   5.770  1.00 20.00    -0.267 NA
HETATM   12  N12 UNL     1     -33.951   5.752   4.530  1.00 20.00    -0.226 N 
ENDROOT
TORSDOF 0
