REMARK  2 active torsions:
REMARK  status: ('A' for Active; 'I' for Inactive)
REMARK    1  A    between atoms: C4_4  and  C10_10 
REMARK    2  A    between atoms: C5_5  and  C11_11 
ROOT
HETATM    1  C1  UNL     1     -33.268   5.054   2.325  1.00 20.00     0.004 A 
HETATM    2  C2  UNL     1     -33.774   4.323   3.328  1.00 20.00    -0.017 A 
HETATM    3  C3  UNL     1     -33.149   6.429   4.133  1.00 20.00    -0.011 A 
HETATM    4  C4  UNL     1     -32.882   6.354   2.820  1.00 20.00    -0.058 A 
HETATM    5  C5  UNL     1     -33.752   5.128   4.602  1.00 20.00     0.034 A 
ENDROOT
BRANCH   4   6
HETATM    6  C10 UNL     1     -32.284   7.392   1.946  1.00 20.00     0.010 C 
HETATM    7  C6  UNL     1     -33.224   7.737   0.787  1.00 20.00     0.015 C 
HETATM    8  C7  UNL     1     -31.934   8.655   2.739  1.00 20.00     0.015 C 
ENDBRANCH   4   6
BRANCH   5   9
HETATM    9  C11 UNL     1     -35.144   5.318   5.190  1.00 20.00    -0.012 C 
HETATM   10  C8  UNL     1     -35.077   6.107   6.497  1.00 20.00     0.010 C 
HETATM   11  C9  UNL     1     -36.063   6.019   4.189  1.00 20.00     0.010 C 
ENDBRANCH   5   9
TORSDOF 2
