REMARK  0 active torsions:
REMARK  status: ('A' for Active; 'I' for Inactive)
ROOT
HETATM    1  C1  UNL     1     -32.920   6.084   2.256  1.00 20.00     0.021 A 
HETATM    2  C2  UNL     1     -33.923   5.578   3.199  1.00 20.00     0.029 A 
HETATM    3  C3  UNL     1     -34.612   5.581   6.697  1.00 20.00     0.025 A 
HETATM    4  C4  UNL     1     -32.185   7.165   2.593  1.00 20.00     0.107 A 
HETATM    5  C5  UNL     1     -33.651   7.789   5.949  1.00 20.00     0.101 C 
HETATM    6  C6  UNL     1     -34.925   6.041   5.502  1.00 20.00     0.038 A 
HETATM    7  C7  UNL     1     -34.560   7.011   6.590  1.00 20.00     0.028 A 
HETATM    8  C8  UNL     1     -34.027   6.210   4.380  1.00 20.00     0.044 A 
HETATM    9  N9  UNL     1     -32.346   7.799   3.811  1.00 20.00    -0.306 N 
HETATM   10  N10 UNL     1     -33.234   7.310   4.716  1.00 20.00    -0.274 N 
HETATM   11  H16 UNL     1     -31.737   8.570   4.055  1.00 20.00     0.186 HD
ENDROOT
TORSDOF 0
