REMARK  0 active torsions:
REMARK  status: ('A' for Active; 'I' for Inactive)
ROOT
HETATM    1  C1  UNL     1     -34.282   5.144   6.731  1.00 20.00    -0.027 A 
HETATM    2  C2  UNL     1     -34.754   6.351   6.372  1.00 20.00    -0.010 A 
HETATM    3  C3  UNL     1     -34.120   4.665   5.305  1.00 20.00     0.051 A 
HETATM    4  C4  UNL     1     -34.678   6.055   4.882  1.00 20.00     0.035 A 
HETATM    5  C5  UNL     1     -36.012   6.033   4.149  1.00 20.00     0.032 C 
HETATM    6 BR6  UNL     1     -33.378   7.213   3.991  1.00 20.00    -0.081 Br
ENDROOT
TORSDOF 0
