REMARK  2 active torsions:
REMARK  status: ('A' for Active; 'I' for Inactive)
REMARK    1  A    between atoms: C7_7  and  C9_9 
REMARK    2  A    between atoms: C8_8  and  C10_10 
ROOT
HETATM    1  C1  UNL     1     -32.282   8.478   0.487  1.00 20.00     0.012 C 
HETATM    2  C2  UNL     1     -32.378   7.768   1.450  1.00 20.00    -0.112 C 
HETATM    3  C6  UNL     1     -32.494   6.919   2.601  1.00 20.00     0.074 A 
HETATM    4  C9  UNL     1     -33.323   7.411   3.768  1.00 20.00     0.011 A 
HETATM    5  C10 UNL     1     -33.845   6.306   2.901  1.00 20.00     0.011 A 
ENDROOT
BRANCH   4   6
HETATM    6  C7  UNL     1     -33.300   6.798   5.167  1.00 20.00    -0.008 C 
HETATM    7  C3  UNL     1     -34.770   6.667   5.630  1.00 20.00     0.005 C 
HETATM    8  C4  UNL     1     -35.309   5.524   4.734  1.00 20.00     0.005 C 
HETATM    9  C8  UNL     1     -34.076   5.154   3.876  1.00 20.00    -0.008 C 
HETATM   10  C5  UNL     1     -32.960   5.320   4.919  1.00 20.00     0.010 C 
ENDBRANCH   4   6
TORSDOF 2
