REMARK  0 active torsions:
REMARK  status: ('A' for Active; 'I' for Inactive)
ROOT
HETATM    1  C1  UNL     1     -32.974   4.811   2.126  1.00 20.00     0.013 C 
HETATM    2  C2  UNL     1     -33.513   5.266   3.097  1.00 20.00    -0.106 C 
HETATM    3  C3  UNL     1     -35.672   5.770   4.302  1.00 20.00     0.041 A 
HETATM    4  C4  UNL     1     -34.886   4.814   5.154  1.00 20.00     0.079 A 
HETATM    5  C5  UNL     1     -34.161   5.812   4.265  1.00 20.00     0.033 A 
HETATM    6  C6  UNL     1     -33.480   7.025   4.842  1.00 20.00     0.030 C 
HETATM    7 BR7  UNL     1     -34.945   5.029   7.050  1.00 20.00    -0.089 Br
ENDROOT
TORSDOF 0
