REMARK  0 active torsions:
REMARK  status: ('A' for Active; 'I' for Inactive)
ROOT
HETATM    1  C1  UNL     1     -34.944   4.422   4.844  1.00 20.00     0.001 C 
HETATM    2  C2  UNL     1     -32.188   7.683   2.346  1.00 20.00     0.001 C 
HETATM    3  C3  UNL     1     -33.857   4.614   3.778  1.00 20.00     0.005 C 
HETATM    4  C4  UNL     1     -32.571   6.213   2.272  1.00 20.00     0.005 C 
HETATM    5  C5  UNL     1     -34.592   4.999   6.216  1.00 20.00     0.005 C 
HETATM    6  C6  UNL     1     -32.134   7.997   3.839  1.00 20.00     0.005 C 
HETATM    7  C7  UNL     1     -33.810   7.375   6.958  1.00 20.00     0.010 A 
HETATM    8  C8  UNL     1     -33.583   6.073   3.407  1.00 20.00    -0.010 C 
HETATM    9  C9  UNL     1     -34.817   6.480   6.285  1.00 20.00    -0.010 A 
HETATM   10  C10 UNL     1     -32.941   6.892   4.541  1.00 20.00    -0.006 C 
HETATM   11  C11 UNL     1     -33.987   7.436   5.465  1.00 20.00    -0.006 A 
ENDROOT
TORSDOF 0
