REMARK  0 active torsions:
REMARK  status: ('A' for Active; 'I' for Inactive)
ROOT
HETATM    1  C1  UNL     1     -32.932   5.601   1.590  1.00 20.00     0.012 C 
HETATM    2  C2  UNL     1     -32.929   5.708   2.786  1.00 20.00    -0.112 C 
HETATM    3  C3  UNL     1     -33.912   6.651   6.801  1.00 20.00    -0.026 C 
HETATM    4  C4  UNL     1     -34.044   5.378   6.394  1.00 20.00    -0.024 C 
HETATM    5  C5  UNL     1     -35.290   7.497   4.940  1.00 20.00     0.009 C 
HETATM    6  C6  UNL     1     -35.447   6.028   4.485  1.00 20.00     0.010 C 
HETATM    7  C7  UNL     1     -32.811   7.327   4.690  1.00 20.00     0.026 C 
HETATM    8  C8  UNL     1     -32.925   5.840   4.253  1.00 20.00     0.072 C 
HETATM    9  C9  UNL     1     -33.947   7.674   5.683  1.00 20.00     0.009 C 
HETATM   10  C10 UNL     1     -34.195   5.212   4.893  1.00 20.00     0.023 C 
ENDROOT
TORSDOF 0
