REMARK  0 active torsions:
REMARK  status: ('A' for Active; 'I' for Inactive)
ROOT
HETATM    1  C1  UNL     1     -33.499   6.955   4.504  1.00 20.00    -0.064 A 
HETATM    2  C2  UNL     1     -32.398   7.557   4.096  1.00 20.00     0.016 C 
HETATM    3  C3  UNL     1     -34.912   6.016   6.700  1.00 20.00     0.017 A 
HETATM    4  C4  UNL     1     -33.640   6.729   6.857  1.00 20.00     0.017 A 
HETATM    5  C5  UNL     1     -34.466   6.035   4.134  1.00 20.00     0.099 A 
HETATM    6  C6  UNL     1     -34.443   6.890   5.556  1.00 20.00     0.000 A 
HETATM    7 BR7  UNL     1     -33.881   4.223   4.037  1.00 20.00    -0.085 Br
ENDROOT
TORSDOF 0
