REMARK  0 active torsions:
REMARK  status: ('A' for Active; 'I' for Inactive)
ROOT
HETATM    1  C1  UNL     1     -34.152   5.993   4.698  1.00 20.00    -0.087 C 
HETATM    2  C2  UNL     1     -34.903   5.516   5.691  1.00 20.00     0.014 C 
HETATM    3  C3  UNL     1     -33.507   5.353   3.488  1.00 20.00     0.049 C 
HETATM    4  C4  UNL     1     -33.640   7.376   4.359  1.00 20.00     0.049 C 
HETATM    5  C5  UNL     1     -32.600   6.610   3.502  1.00 20.00     0.065 C 
HETATM    6 BR6  UNL     1     -32.222   7.383   1.764  1.00 20.00    -0.091 Br
ENDROOT
TORSDOF 0
