REMARK  0 active torsions:
REMARK  status: ('A' for Active; 'I' for Inactive)
ROOT
HETATM    1  C1  UNL     1     -33.558   5.144   3.197  1.00 20.00     0.009 A 
HETATM    2  C2  UNL     1     -32.834   5.906   2.277  1.00 20.00     0.019 A 
HETATM    3  C3  UNL     1     -32.860   7.794   3.790  1.00 20.00     0.032 A 
HETATM    4  C4  UNL     1     -33.569   7.019   4.705  1.00 20.00    -0.011 A 
HETATM    5  C5  UNL     1     -33.923   5.698   4.425  1.00 20.00    -0.045 A 
HETATM    6  C6  UNL     1     -32.487   7.227   2.573  1.00 20.00     0.011 A 
HETATM    7  C7  UNL     1     -34.005   7.582   5.986  1.00 20.00     0.122 C 
HETATM    8  C8  UNL     1     -34.753   4.954   5.427  1.00 20.00     0.061 C 
HETATM    9  C9  UNL     1     -34.408   5.422   6.838  1.00 20.00     0.153 C 
HETATM   10  N10 UNL     1     -34.444   6.885   6.980  1.00 20.00    -0.300 NA
HETATM   11 BR11 UNL     1     -31.516   8.250   1.314  1.00 20.00    -0.051 Br
ENDROOT
TORSDOF 0
