REMARK  0 active torsions:
REMARK  status: ('A' for Active; 'I' for Inactive)
ROOT
HETATM    1  C1  UNL     1     -32.718   7.289   3.051  1.00 20.00     0.179 C 
HETATM    2  C2  UNL     1     -33.583   7.072   6.665  1.00 20.00    -0.010 C 
HETATM    3  C3  UNL     1     -34.581   6.182   6.575  1.00 20.00    -0.023 C 
HETATM    4  C4  UNL     1     -32.989   7.773   5.481  1.00 20.00     0.161 C 
HETATM    5  C5  UNL     1     -34.899   6.860   4.179  1.00 20.00     0.143 C 
HETATM    6  C6  UNL     1     -35.234   5.829   5.267  1.00 20.00     0.022 C 
HETATM    7  C7  UNL     1     -34.834   4.415   4.845  1.00 20.00     0.016 C 
HETATM    8  N8  UNL     1     -32.105   7.405   2.073  1.00 20.00    -0.172 NA
HETATM    9  N9  UNL     1     -33.431   7.154   4.188  1.00 20.00    -0.316 N 
ENDROOT
TORSDOF 0
