REMARK  0 active torsions:
REMARK  status: ('A' for Active; 'I' for Inactive)
ROOT
HETATM    1  C1  UNL     1     -32.739   7.419   4.403  1.00 20.00     0.129 C 
HETATM    2  C2  UNL     1     -33.343   6.414   3.753  1.00 20.00     0.136 C 
HETATM    3  C3  UNL     1     -32.932   7.696   5.861  1.00 20.00     0.073 C 
HETATM    4  C4  UNL     1     -34.124   6.951   6.462  1.00 20.00     0.008 C 
HETATM    5  C5  UNL     1     -34.179   5.508   5.963  1.00 20.00     0.016 C 
HETATM    6  C6  UNL     1     -34.271   5.418   4.418  1.00 20.00     0.009 C 
HETATM    7  C7  UNL     1     -35.709   5.709   3.950  1.00 20.00     0.022 C 
HETATM    8  C8  UNL     1     -33.892   3.992   3.984  1.00 20.00     0.022 C 
HETATM    9  F9  UNL     1     -31.926   8.239   3.700  1.00 20.00    -0.208 F 
HETATM   10  F10 UNL     1     -33.102   6.284   2.427  1.00 20.00    -0.207 F 
ENDROOT
TORSDOF 0
