REMARK  0 active torsions:
REMARK  status: ('A' for Active; 'I' for Inactive)
ROOT
HETATM    1  C1  UNL     1     -32.923   4.289   2.282  1.00 20.00     0.014 C 
HETATM    2  C2  UNL     1     -33.146   5.162   3.075  1.00 20.00    -0.090 C 
HETATM    3  C3  UNL     1     -33.784   6.056   6.712  1.00 20.00     0.013 A 
HETATM    4  C4  UNL     1     -34.230   4.708   6.141  1.00 20.00     0.013 A 
HETATM    5  C5  UNL     1     -34.883   6.574   4.295  1.00 20.00     0.052 A 
HETATM    6  C6  UNL     1     -33.410   6.204   4.021  1.00 20.00     0.107 A 
HETATM    7  C7  UNL     1     -34.064   5.883   5.288  1.00 20.00    -0.005 A 
HETATM    8 CL8  UNL     1     -32.249   7.530   3.987  1.00 20.00    -0.104 Cl
ENDROOT
TORSDOF 0
