REMARK  0 active torsions:
REMARK  status: ('A' for Active; 'I' for Inactive)
ROOT
HETATM    1  C1  UNL     1     -32.879   7.562   5.442  1.00 20.00    -0.012 C 
HETATM    2  C2  UNL     1     -33.021   7.006   6.661  1.00 20.00    -0.016 C 
HETATM    3  C3  UNL     1     -33.443   5.944   3.752  1.00 20.00    -0.010 C 
HETATM    4  C4  UNL     1     -33.938   4.523   3.920  1.00 20.00     0.014 C 
HETATM    5  C5  UNL     1     -33.891   6.894   4.635  1.00 20.00     0.051 C 
HETATM    6  C6  UNL     1     -34.177   6.095   6.641  1.00 20.00     0.034 C 
HETATM    7  C7  UNL     1     -34.977   6.427   5.584  1.00 20.00     0.224 C 
HETATM    8  C8  UNL     1     -34.708   4.314   5.041  1.00 20.00     0.216 C 
HETATM    9  C9  UNL     1     -33.996   4.570   6.450  1.00 20.00     0.066 C 
HETATM   10  N10 UNL     1     -35.701   5.321   5.122  1.00 20.00     0.115 N 
HETATM   11  H17 UNL     1     -36.515   5.077   5.679  1.00 20.00     0.318 HD
ENDROOT
TORSDOF 0
