REMARK  0 active torsions:
REMARK  status: ('A' for Active; 'I' for Inactive)
ROOT
HETATM    1  C1  UNL     1     -33.203   7.306   5.688  1.00 20.00    -0.007 A 
HETATM    2  C2  UNL     1     -33.286   6.980   4.390  1.00 20.00    -0.014 A 
HETATM    3  C3  UNL     1     -34.418   6.010   4.165  1.00 20.00     0.051 A 
HETATM    4  C4  UNL     1     -34.256   5.155   6.661  1.00 20.00     0.014 A 
HETATM    5  C5  UNL     1     -34.226   6.650   6.519  1.00 20.00     0.014 A 
HETATM    6  C6  UNL     1     -35.025   5.804   5.542  1.00 20.00    -0.002 A 
HETATM    7 BR7  UNL     1     -32.237   7.544   2.998  1.00 20.00    -0.056 Br
ENDROOT
TORSDOF 0
