REMARK  0 active torsions:
REMARK  status: ('A' for Active; 'I' for Inactive)
ROOT
HETATM    1  C1  UNL     1     -32.971   7.079   4.372  1.00 20.00     0.041 A 
HETATM    2  C2  UNL     1     -33.468   5.906   3.941  1.00 20.00     0.101 A 
HETATM    3  C3  UNL     1     -34.051   7.268   5.411  1.00 20.00     0.138 A 
HETATM    4  C4  UNL     1     -34.632   5.919   4.923  1.00 20.00     0.287 A 
HETATM    5  F5  UNL     1     -35.886   5.996   4.415  1.00 20.00    -0.199 F 
HETATM    6  F6  UNL     1     -34.673   4.948   5.867  1.00 20.00    -0.199 F 
HETATM    7 CL7  UNL     1     -31.575   8.047   3.905  1.00 20.00    -0.087 Cl
HETATM    8 CL8  UNL     1     -32.969   4.760   2.697  1.00 20.00    -0.081 Cl
ENDROOT
TORSDOF 0
