REMARK  0 active torsions:
REMARK  status: ('A' for Active; 'I' for Inactive)
ROOT
HETATM    1  C1  UNL     1     -33.601   7.069   4.799  1.00 20.00    -0.075 C 
HETATM    2  C2  UNL     1     -32.945   7.629   3.781  1.00 20.00     0.015 C 
HETATM    3  C3  UNL     1     -33.540   7.274   6.296  1.00 20.00     0.036 C 
HETATM    4  C4  UNL     1     -34.901   6.548   6.307  1.00 20.00     0.024 C 
HETATM    5  C5  UNL     1     -34.680   6.008   4.874  1.00 20.00     0.086 C 
HETATM    6 BR6  UNL     1     -33.986   4.206   4.745  1.00 20.00    -0.086 Br
ENDROOT
TORSDOF 0
