REMARK  1 active torsions:
REMARK  status: ('A' for Active; 'I' for Inactive)
REMARK    1  A    between atoms: C4_4  and  C6_6 
ROOT
HETATM    1  C1  UNL     1     -32.751   9.299   0.834  1.00 20.00     0.012 C 
HETATM    2  C2  UNL     1     -32.508   8.311   1.472  1.00 20.00    -0.109 C 
HETATM    3  C3  UNL     1     -32.865   7.202   3.608  1.00 20.00    -0.003 C 
HETATM    4  C4  UNL     1     -33.537   6.191   4.187  1.00 20.00    -0.061 C 
HETATM    5  C7  UNL     1     -33.667   4.836   3.538  1.00 20.00     0.038 C 
HETATM    6  C8  UNL     1     -32.689   4.625   2.379  1.00 20.00     0.006 C 
HETATM    7  C9  UNL     1     -32.644   5.851   1.473  1.00 20.00     0.021 C 
HETATM    8  C10 UNL     1     -32.210   7.100   2.255  1.00 20.00     0.087 C 
ENDROOT
BRANCH   4   9
HETATM    9  C6  UNL     1     -34.161   6.346   5.478  1.00 20.00    -0.004 C 
HETATM   10  C5  UNL     1     -33.528   7.035   6.441  1.00 20.00     0.012 C 
ENDBRANCH   4   9
TORSDOF 1
