REMARK  0 active torsions:
REMARK  status: ('A' for Active; 'I' for Inactive)
ROOT
HETATM    1  C1  UNL     1     -32.407   6.910   2.939  1.00 20.00     0.013 C 
HETATM    2  C2  UNL     1     -33.168   6.265   3.607  1.00 20.00    -0.104 C 
HETATM    3  C3  UNL     1     -35.522   5.954   4.452  1.00 20.00     0.069 A 
HETATM    4  C4  UNL     1     -34.083   5.489   4.410  1.00 20.00     0.057 A 
HETATM    5  C5  UNL     1     -34.658   6.122   5.674  1.00 20.00     0.133 A 
HETATM    6  C6  UNL     1     -33.832   4.003   4.349  1.00 20.00     0.032 C 
HETATM    7 CL7  UNL     1     -35.024   5.122   7.082  1.00 20.00    -0.100 Cl
HETATM    8 CL8  UNL     1     -34.213   7.773   6.128  1.00 20.00    -0.100 Cl
ENDROOT
TORSDOF 0
