REMARK  0 active torsions:
REMARK  status: ('A' for Active; 'I' for Inactive)
ROOT
HETATM    1  C1  UNL     1     -32.995   6.944   4.062  1.00 20.00    -0.059 A 
HETATM    2  C2  UNL     1     -33.882   6.884   5.076  1.00 20.00    -0.055 A 
HETATM    3  C3  UNL     1     -33.664   5.832   3.275  1.00 20.00     0.138 A 
HETATM    4  C4  UNL     1     -34.625   5.671   4.498  1.00 20.00     0.077 A 
HETATM    5  C5  UNL     1     -31.788   7.857   3.767  1.00 20.00     0.045 C 
HETATM    6  C6  UNL     1     -34.053   7.688   6.382  1.00 20.00     0.046 C 
HETATM    7  C7  UNL     1     -34.460   4.407   5.350  1.00 20.00     0.039 C 
HETATM    8 CL8  UNL     1     -32.639   4.440   2.724  1.00 20.00    -0.118 Cl
HETATM    9 CL9  UNL     1     -36.380   5.939   4.127  1.00 20.00    -0.113 Cl
ENDROOT
TORSDOF 0
