REMARK  0 active torsions:
REMARK  status: ('A' for Active; 'I' for Inactive)
ROOT
HETATM    1  C1  UNL     1     -32.215   7.514   4.111  1.00 20.00     0.013 C 
HETATM    2  C2  UNL     1     -33.147   7.092   4.739  1.00 20.00    -0.106 C 
HETATM    3  C3  UNL     1     -35.484   6.158   4.703  1.00 20.00     0.041 A 
HETATM    4  C4  UNL     1     -34.644   5.121   5.394  1.00 20.00     0.079 A 
HETATM    5  C5  UNL     1     -34.266   6.585   5.492  1.00 20.00     0.033 A 
HETATM    6  C6  UNL     1     -34.492   7.274   6.811  1.00 20.00     0.030 C 
HETATM    7 BR7  UNL     1     -33.649   3.905   4.305  1.00 20.00    -0.089 Br
ENDROOT
TORSDOF 0
