REMARK  1 active torsions:
REMARK  status: ('A' for Active; 'I' for Inactive)
REMARK    1  A    between atoms: C2_2  and  C6_6 
ROOT
HETATM    1  C3  UNL     1     -35.087   7.260   4.753  1.00 20.00     0.006 C 
HETATM    2  C4  UNL     1     -33.674   7.413   5.343  1.00 20.00     0.006 C 
HETATM    3  C5  UNL     1     -34.148   6.121   2.763  1.00 20.00     0.014 C 
HETATM    4  C6  UNL     1     -32.711   6.227   3.330  1.00 20.00     0.012 C 
HETATM    5  C7  UNL     1     -35.009   5.894   4.033  1.00 20.00    -0.006 C 
HETATM    6  C8  UNL     1     -32.961   6.123   4.865  1.00 20.00     0.001 C 
HETATM    7  C9  UNL     1     -34.088   5.057   4.955  1.00 20.00    -0.040 C 
HETATM    8  C10 UNL     1     -33.723   3.666   4.402  1.00 20.00     0.015 C 
HETATM    9  C11 UNL     1     -34.639   4.821   6.375  1.00 20.00     0.015 C 
ENDROOT
BRANCH   4  10
HETATM   10  C2  UNL     1     -31.963   7.436   2.872  1.00 20.00    -0.032 C 
HETATM   11  C1  UNL     1     -32.542   8.599   2.555  1.00 20.00     0.007 C 
ENDBRANCH   4  10
TORSDOF 1
