REMARK  1 active torsions:
REMARK  status: ('A' for Active; 'I' for Inactive)
REMARK    1  A    between atoms: C3_3  and  C6_6 
ROOT
HETATM    1  C1  UNL     1     -32.554   8.649   0.307  1.00 20.00     0.013 C 
HETATM    2  C2  UNL     1     -32.352   8.067   1.337  1.00 20.00    -0.107 C 
HETATM    3  C5  UNL     1     -31.842   5.882   2.491  1.00 20.00     0.033 A 
HETATM    4  C6  UNL     1     -33.171   6.366   3.005  1.00 20.00     0.030 A 
HETATM    5  C7  UNL     1     -32.109   7.368   2.575  1.00 20.00     0.027 A 
HETATM    6  C10 UNL     1     -31.340   8.160   3.600  1.00 20.00     0.030 C 
ENDROOT
BRANCH   4   7
HETATM    7  C3  UNL     1     -33.496   6.176   4.412  1.00 20.00    -0.018 C 
HETATM    8  C4  UNL     1     -34.690   5.854   4.945  1.00 20.00    -0.091 C 
HETATM    9  C8  UNL     1     -34.861   5.694   6.430  1.00 20.00     0.042 C 
HETATM   10  C9  UNL     1     -35.934   5.629   4.134  1.00 20.00     0.042 C 
ENDBRANCH   4   7
TORSDOF 1
