REMARK  1 active torsions:
REMARK  status: ('A' for Active; 'I' for Inactive)
REMARK    1  A    between atoms: C1_1  and  C6_6 
ROOT
HETATM    1  C1  UNL     1     -33.012   6.427   3.733  1.00 20.00    -0.029 A 
HETATM    2  C2  UNL     1     -33.454   6.728   4.967  1.00 20.00     0.168 A 
HETATM    3  C3  UNL     1     -33.931   5.243   3.576  1.00 20.00     0.124 A 
HETATM    4  C7  UNL     1     -34.444   5.570   5.001  1.00 20.00     0.300 A 
HETATM    5  F8  UNL     1     -33.141   7.686   5.850  1.00 20.00    -0.204 F 
HETATM    6  F9  UNL     1     -34.237   4.590   5.913  1.00 20.00    -0.198 F 
HETATM    7  F10 UNL     1     -35.763   5.870   5.070  1.00 20.00    -0.198 F 
ENDROOT
BRANCH   1   8
HETATM    8  C6  UNL     1     -31.954   7.087   2.841  1.00 20.00     0.018 A 
HETATM    9  C4  UNL     1     -32.215   7.547   1.406  1.00 20.00     0.010 A 
HETATM   10  C5  UNL     1     -31.953   8.571   2.469  1.00 20.00     0.010 A 
ENDBRANCH   1   8
TORSDOF 1
