REMARK  0 active torsions:
REMARK  status: ('A' for Active; 'I' for Inactive)
ROOT
HETATM    1  C1  UNL     1     -32.854   7.568   4.468  1.00 20.00     0.019 A 
HETATM    2  C2  UNL     1     -33.948   7.227   5.163  1.00 20.00     0.054 A 
HETATM    3  C3  UNL     1     -34.233   5.190   3.718  1.00 20.00     0.096 A 
HETATM    4  C4  UNL     1     -33.139   5.532   3.023  1.00 20.00     0.133 A 
HETATM    5  C5  UNL     1     -32.326   6.756   3.320  1.00 20.00     0.254 A 
HETATM    6  C6  UNL     1     -34.760   6.000   4.866  1.00 20.00     0.282 A 
HETATM    7  F7  UNL     1     -32.747   4.733   2.005  1.00 20.00    -0.207 F 
HETATM    8  F8  UNL     1     -32.263   7.538   2.204  1.00 20.00    -0.238 F 
HETATM    9  F9  UNL     1     -34.819   5.217   5.981  1.00 20.00    -0.197 F 
HETATM   10  F10 UNL     1     -36.049   6.362   4.609  1.00 20.00    -0.197 F 
ENDROOT
TORSDOF 0
