REMARK  1 active torsions:
REMARK  status: ('A' for Active; 'I' for Inactive)
REMARK    1  A    between atoms: C4_4  and  C6_6 
ROOT
HETATM    1  C1  UNL     1     -33.897   7.690   2.871  1.00 20.00     0.062 C 
HETATM    2  C2  UNL     1     -32.017   7.330   3.804  1.00 20.00     0.062 C 
HETATM    3  C3  UNL     1     -33.007   5.760   2.760  1.00 20.00     0.062 C 
HETATM    4  C4  UNL     1     -33.442   6.662   3.988  1.00 20.00     0.067 C 
HETATM    5  C5  UNL     1     -32.531   7.176   2.350  1.00 20.00     0.106 C 
HETATM    6  F7  UNL     1     -31.910   7.527   1.235  1.00 20.00    -0.243 F 
ENDROOT
BRANCH   4   7
HETATM    7  C6  UNL     1     -34.135   6.271   5.234  1.00 20.00     0.395 C 
HETATM    8  F8  UNL     1     -35.354   5.724   4.988  1.00 20.00    -0.170 F 
HETATM    9  F9  UNL     1     -33.427   5.353   5.943  1.00 20.00    -0.170 F 
HETATM   10  F10 UNL     1     -34.339   7.333   6.057  1.00 20.00    -0.170 F 
ENDBRANCH   4   7
TORSDOF 1
