REMARK  0 active torsions:
REMARK  status: ('A' for Active; 'I' for Inactive)
ROOT
HETATM    1  C1  UNL     1     -33.056   5.182   2.325  1.00 20.00     0.001 C 
HETATM    2  C2  UNL     1     -34.430   5.457   6.687  1.00 20.00     0.001 C 
HETATM    3  C3  UNL     1     -34.481   5.120   2.865  1.00 20.00     0.005 C 
HETATM    4  C4  UNL     1     -34.251   4.640   5.402  1.00 20.00     0.005 C 
HETATM    5  C5  UNL     1     -32.547   6.612   2.180  1.00 20.00     0.005 C 
HETATM    6  C6  UNL     1     -34.698   6.905   6.244  1.00 20.00     0.005 C 
HETATM    7  C7  UNL     1     -32.260   8.440   4.022  1.00 20.00     0.010 A 
HETATM    8  C8  UNL     1     -34.744   5.575   4.299  1.00 20.00    -0.010 C 
HETATM    9  C9  UNL     1     -31.944   7.086   3.454  1.00 20.00    -0.010 A 
HETATM   10  C10 UNL     1     -34.261   6.956   4.766  1.00 20.00    -0.006 C 
HETATM   11  C11 UNL     1     -32.769   7.195   4.708  1.00 20.00    -0.006 A 
ENDROOT
TORSDOF 0
