REMARK  2 active torsions:
REMARK  status: ('A' for Active; 'I' for Inactive)
REMARK    1  A    between atoms: C1_1  and  C6_6 
REMARK    2  A    between atoms: C2_2  and  C8_8 
ROOT
HETATM    1  C1  UNL     1     -33.657   5.943   3.969  1.00 20.00    -0.100 C 
HETATM    2  C2  UNL     1     -33.141   6.901   3.462  1.00 20.00    -0.088 C 
ENDROOT
BRANCH   1   3
HETATM    3  C6  UNL     1     -34.273   4.799   4.574  1.00 20.00     0.069 A 
HETATM    4  C5  UNL     1     -35.674   4.931   5.114  1.00 20.00     0.023 A 
HETATM    5  C7  UNL     1     -34.523   4.753   6.063  1.00 20.00    -0.002 A 
HETATM    6  C9  UNL     1     -34.134   5.862   6.981  1.00 20.00     0.011 C 
ENDBRANCH   1   3
BRANCH   2   7
HETATM    7  C8  UNL     1     -32.512   8.068   2.845  1.00 20.00     0.055 A 
HETATM    8  C3  UNL     1     -33.226   8.917   1.906  1.00 20.00    -0.003 A 
HETATM    9  C4  UNL     1     -32.266   8.139   1.413  1.00 20.00    -0.003 A 
HETATM   10  C10 UNL     1     -31.509   8.732   3.751  1.00 20.00     0.038 C 
ENDBRANCH   2   7
TORSDOF 2
