REMARK  0 active torsions:
REMARK  status: ('A' for Active; 'I' for Inactive)
ROOT
HETATM    1  C1  UNL     1     -33.814   4.855   6.621  1.00 20.00    -0.025 C 
HETATM    2  C2  UNL     1     -34.123   6.162   6.713  1.00 20.00    -0.025 C 
HETATM    3  C3  UNL     1     -32.808   5.105   2.898  1.00 20.00    -0.022 C 
HETATM    4  C4  UNL     1     -32.522   6.373   2.524  1.00 20.00     0.007 C 
HETATM    5  C5  UNL     1     -35.570   5.167   5.227  1.00 20.00     0.018 C 
HETATM    6  C6  UNL     1     -34.252   4.378   5.235  1.00 20.00     0.017 C 
HETATM    7  C7  UNL     1     -34.878   6.545   5.462  1.00 20.00     0.016 C 
HETATM    8  C8  UNL     1     -33.286   5.154   4.306  1.00 20.00     0.023 C 
HETATM    9  C9  UNL     1     -32.996   7.390   3.562  1.00 20.00     0.198 C 
HETATM   10  C10 UNL     1     -34.045   6.505   4.181  1.00 20.00     0.039 C 
HETATM   11  F11 UNL     1     -32.019   7.696   4.446  1.00 20.00    -0.245 F 
ENDROOT
TORSDOF 0
