REMARK  1 active torsions:
REMARK  status: ('A' for Active; 'I' for Inactive)
REMARK    1  A    between atoms: C1_1  and  C5_5 
ROOT
HETATM    1  C2  UNL     1     -32.745   6.035   6.579  1.00 20.00     0.006 C 
HETATM    2  C3  UNL     1     -33.792   4.915   6.635  1.00 20.00     0.006 C 
HETATM    3  C4  UNL     1     -34.914   6.980   6.732  1.00 20.00     0.011 C 
HETATM    4  C5  UNL     1     -33.927   7.141   4.587  1.00 20.00     0.084 C 
HETATM    5  C6  UNL     1     -33.553   7.251   6.083  1.00 20.00    -0.001 C 
HETATM    6  C7  UNL     1     -35.052   5.598   6.075  1.00 20.00    -0.006 C 
HETATM    7  C8  UNL     1     -34.902   5.924   4.549  1.00 20.00    -0.032 C 
HETATM    8  C9  UNL     1     -36.264   6.354   3.965  1.00 20.00     0.016 C 
HETATM    9  C10 UNL     1     -34.415   4.722   3.724  1.00 20.00     0.016 C 
ENDROOT
BRANCH   4  10
HETATM   10  C1  UNL     1     -32.728   7.077   3.691  1.00 20.00     0.224 C 
HETATM   11  O11 UNL     1     -32.543   6.135   2.926  1.00 20.00    -0.279 OA
HETATM   12 CL12 UNL     1     -31.693   8.459   3.883  1.00 20.00    -0.043 Cl
ENDBRANCH   4  10
TORSDOF 1
