REMARK  1 active torsions:
REMARK  status: ('A' for Active; 'I' for Inactive)
REMARK    1  A    between atoms: C6_6  and  C10_10 
ROOT
HETATM    1  C1  UNL     1     -33.005   5.307   3.608  1.00 20.00     0.142 A 
HETATM    2  C2  UNL     1     -31.974   8.318   3.125  1.00 20.00     0.006 C 
HETATM    3  C3  UNL     1     -32.121   7.576   4.459  1.00 20.00     0.019 C 
HETATM    4  C4  UNL     1     -33.340   6.391   2.712  1.00 20.00     0.076 A 
HETATM    5  C5  UNL     1     -32.297   7.261   2.053  1.00 20.00    -0.006 C 
HETATM    6  C6  UNL     1     -33.260   6.606   4.213  1.00 20.00     0.034 A 
HETATM    7  C7  UNL     1     -32.778   7.888   0.754  1.00 20.00     0.011 C 
HETATM    8  O11 UNL     1     -33.481   4.205   3.782  1.00 20.00    -0.297 OA
ENDROOT
BRANCH   6   9
HETATM    9  C10 UNL     1     -34.524   6.877   4.973  1.00 20.00    -0.006 C 
HETATM   10  C8  UNL     1     -35.703   6.066   4.412  1.00 20.00     0.011 C 
HETATM   11  C9  UNL     1     -34.358   6.574   6.470  1.00 20.00     0.011 C 
ENDBRANCH   6   9
TORSDOF 1
