REMARK  4 active torsions:
REMARK  status: ('A' for Active; 'I' for Inactive)
REMARK    1  A    between atoms: C1_1  and  C7_7 
REMARK    2  A    between atoms: C2_2  and  C9_9 
REMARK    3  A    between atoms: C9_9  and  C11_11 
REMARK    4  A    between atoms: C10_10  and  C11_11 
ROOT
HETATM    1  C1  UNL     1     -33.409   6.751   3.618  1.00 20.00    -0.098 C 
HETATM    2  C2  UNL     1     -32.504   7.409   3.179  1.00 20.00    -0.106 C 
ENDROOT
BRANCH   1   3
HETATM    3  C7  UNL     1     -34.513   5.947   4.152  1.00 20.00     0.087 C 
HETATM    4  C4  UNL     1     -34.160   4.494   4.109  1.00 20.00    -0.014 C 
HETATM    5  C3  UNL     1     -33.897   4.003   5.324  1.00 20.00    -0.029 C 
HETATM    6  C5  UNL     1     -34.019   5.048   6.381  1.00 20.00     0.028 C 
HETATM    7  C6  UNL     1     -34.735   6.188   5.652  1.00 20.00     0.025 C 
ENDBRANCH   1   3
BRANCH   2   8
HETATM    8  C9  UNL     1     -31.397   8.214   2.646  1.00 20.00     0.094 C 
BRANCH   8   9
HETATM    9  C11 UNL     1     -31.328   8.115   1.122  1.00 20.00     0.012 C 
BRANCH   9  10
HETATM   10  C10 UNL     1     -32.603   8.649   0.471  1.00 20.00    -0.004 C 
HETATM   11  C8  UNL     1     -32.860  10.097   0.855  1.00 20.00     0.005 C 
ENDBRANCH   9  10
ENDBRANCH   8   9
ENDBRANCH   2   8
TORSDOF 4
