REMARK  0 active torsions:
REMARK  status: ('A' for Active; 'I' for Inactive)
ROOT
HETATM    1  C1  UNL     1     -32.420   7.841   4.110  1.00 20.00     0.017 A 
HETATM    2  C2  UNL     1     -33.320   7.714   5.094  1.00 20.00     0.054 A 
HETATM    3  C3  UNL     1     -33.987   5.466   4.188  1.00 20.00     0.060 A 
HETATM    4  C4  UNL     1     -33.088   5.582   3.194  1.00 20.00    -0.044 A 
HETATM    5  C5  UNL     1     -32.203   6.798   3.053  1.00 20.00     0.221 A 
HETATM    6  C6  UNL     1     -34.203   6.513   5.241  1.00 20.00     0.280 A 
HETATM    7  C7  UNL     1     -32.904   4.508   2.163  1.00 20.00     0.046 C 
HETATM    8  F8  UNL     1     -32.392   7.362   1.825  1.00 20.00    -0.240 F 
HETATM    9  F9  UNL     1     -34.011   5.959   6.473  1.00 20.00    -0.197 F 
HETATM   10  F10 UNL     1     -35.509   6.908   5.222  1.00 20.00    -0.197 F 
ENDROOT
TORSDOF 0
