REMARK  1 active torsions:
REMARK  status: ('A' for Active; 'I' for Inactive)
REMARK    1  A    between atoms: C8_8  and  N9_9 
ROOT
HETATM    1  C1  UNL     1     -33.409   6.938   4.277  1.00 20.00     0.050 C 
HETATM    2  C2  UNL     1     -34.082   6.508   5.349  1.00 20.00     0.136 C 
HETATM    3  C3  UNL     1     -33.041   5.933   3.256  1.00 20.00     0.033 C 
HETATM    4  C4  UNL     1     -33.332   4.491   3.583  1.00 20.00     0.085 C 
HETATM    5  C7  UNL     1     -34.616   4.433   4.394  1.00 20.00     0.180 C 
HETATM    6  N9  UNL     1     -32.453   6.229   2.144  1.00 20.00    -0.289 NA
HETATM    7  O10 UNL     1     -34.548   5.239   5.576  1.00 20.00    -0.363 OA
ENDROOT
BRANCH   6   8
HETATM    8  C8  UNL     1     -32.176   7.647   1.971  1.00 20.00     0.108 A 
HETATM    9  C5  UNL     1     -32.060   8.173   0.568  1.00 20.00     0.029 A 
HETATM   10  C6  UNL     1     -33.265   8.507   1.397  1.00 20.00     0.029 A 
ENDBRANCH   6   8
TORSDOF 1
