REMARK  1 active torsions:
REMARK  status: ('A' for Active; 'I' for Inactive)
REMARK    1  A    between atoms: C7_7  and  C11_11 
ROOT
HETATM    1  C1  UNL     1     -32.765   7.039   2.500  1.00 20.00    -0.084 C 
HETATM    2  C2  UNL     1     -32.319   7.830   1.519  1.00 20.00     0.014 C 
HETATM    3  C3  UNL     1     -33.133   7.512   3.889  1.00 20.00     0.044 C 
HETATM    4  C4  UNL     1     -35.170   5.880   3.932  1.00 20.00     0.016 A 
HETATM    5  C5  UNL     1     -33.083   5.558   2.369  1.00 20.00     0.014 C 
HETATM    6  C6  UNL     1     -33.866   5.195   3.616  1.00 20.00     0.003 A 
HETATM    7  C7  UNL     1     -33.880   6.370   4.550  1.00 20.00    -0.029 A 
HETATM    8  C8  UNL     1     -31.811   4.720   2.261  1.00 20.00     0.015 C 
ENDROOT
BRANCH   7   9
HETATM    9  C11 UNL     1     -33.656   6.167   6.015  1.00 20.00    -0.014 C 
HETATM   10  C9  UNL     1     -34.032   7.419   6.826  1.00 20.00     0.010 C 
HETATM   11  C10 UNL     1     -34.444   4.958   6.548  1.00 20.00     0.010 C 
ENDBRANCH   7   9
TORSDOF 1
