REMARK  0 active torsions:
REMARK  status: ('A' for Active; 'I' for Inactive)
ROOT
HETATM    1  C1  UNL     1     -33.693   4.338   4.138  1.00 20.00     0.017 A 
HETATM    2  C2  UNL     1     -34.396   5.031   5.043  1.00 20.00     0.054 A 
HETATM    3  C3  UNL     1     -33.588   7.180   4.020  1.00 20.00     0.060 A 
HETATM    4  C4  UNL     1     -32.877   6.497   3.106  1.00 20.00    -0.044 A 
HETATM    5  C5  UNL     1     -32.859   4.987   3.072  1.00 20.00     0.221 A 
HETATM    6  C6  UNL     1     -34.423   6.528   5.083  1.00 20.00     0.280 A 
HETATM    7  C7  UNL     1     -32.054   7.191   2.061  1.00 20.00     0.046 C 
HETATM    8  F8  UNL     1     -33.282   4.551   1.850  1.00 20.00    -0.240 F 
HETATM    9  F9  UNL     1     -35.712   6.960   4.972  1.00 20.00    -0.197 F 
HETATM   10  F10 UNL     1     -34.004   6.954   6.309  1.00 20.00    -0.197 F 
ENDROOT
TORSDOF 0
