REMARK  0 active torsions:
REMARK  status: ('A' for Active; 'I' for Inactive)
ROOT
HETATM    1  C1  UNL     1     -34.663   5.475   6.433  1.00 20.00     0.001 C 
HETATM    2  C2  UNL     1     -34.622   4.745   5.081  1.00 20.00     0.005 C 
HETATM    3  C3  UNL     1     -33.861   6.774   6.255  1.00 20.00     0.005 C 
HETATM    4  C4  UNL     1     -33.553   5.350   2.792  1.00 20.00     0.011 C 
HETATM    5  C5  UNL     1     -32.456   6.241   2.194  1.00 20.00     0.079 C 
HETATM    6  C6  UNL     1     -32.593   7.789   4.230  1.00 20.00     0.084 C 
HETATM    7  C7  UNL     1     -33.524   5.464   4.310  1.00 20.00    -0.010 C 
HETATM    8  C8  UNL     1     -33.724   6.914   4.747  1.00 20.00    -0.005 C 
HETATM    9  C9  UNL     1     -32.524   7.678   2.708  1.00 20.00     0.244 C 
HETATM   10  F10 UNL     1     -33.619   8.282   2.173  1.00 20.00    -0.206 F 
HETATM   11  F11 UNL     1     -31.448   8.370   2.254  1.00 20.00    -0.206 F 
ENDROOT
TORSDOF 0
