REMARK  0 active torsions:
REMARK  status: ('A' for Active; 'I' for Inactive)
ROOT
HETATM    1  C1  UNL     1     -32.929   5.580   2.251  1.00 20.00     0.014 C 
HETATM    2  C2  UNL     1     -33.505   5.680   3.300  1.00 20.00    -0.091 C 
HETATM    3  C3  UNL     1     -34.442   4.965   6.841  1.00 20.00     0.003 C 
HETATM    4  C4  UNL     1     -34.062   6.446   6.909  1.00 20.00     0.003 C 
HETATM    5  C5  UNL     1     -34.151   4.519   5.408  1.00 20.00     0.039 C 
HETATM    6  C6  UNL     1     -33.558   6.818   5.516  1.00 20.00     0.039 C 
HETATM    7  C7  UNL     1     -34.206   5.801   4.579  1.00 20.00     0.099 C 
HETATM    8 CL8  UNL     1     -35.901   6.254   4.231  1.00 20.00    -0.105 Cl
ENDROOT
TORSDOF 0
