REMARK  0 active torsions:
REMARK  status: ('A' for Active; 'I' for Inactive)
ROOT
HETATM    1  C1  UNL     1     -34.351   5.188   6.700  1.00 20.00    -0.004 C 
HETATM    2  C2  UNL     1     -34.269   6.618   6.867  1.00 20.00    -0.003 C 
HETATM    3  C3  UNL     1     -34.550   4.639   5.493  1.00 20.00    -0.025 C 
HETATM    4  C4  UNL     1     -34.182   7.437   5.810  1.00 20.00    -0.011 C 
HETATM    5  C5  UNL     1     -34.684   5.470   4.245  1.00 20.00     0.047 C 
HETATM    6  C6  UNL     1     -34.192   6.921   4.400  1.00 20.00     0.084 C 
HETATM    7 BR7  UNL     1     -32.342   7.055   3.750  1.00 20.00    -0.087 Br
ENDROOT
TORSDOF 0
