REMARK  0 active torsions:
REMARK  status: ('A' for Active; 'I' for Inactive)
ROOT
HETATM    1  C1  UNL     1     -33.918   5.646   3.665  1.00 20.00    -0.011 A 
HETATM    2  C2  UNL     1     -33.526   6.839   4.137  1.00 20.00    -0.011 A 
HETATM    3  C3  UNL     1     -34.864   5.008   4.654  1.00 20.00     0.033 A 
HETATM    4  C4  UNL     1     -33.816   6.373   6.660  1.00 20.00     0.016 A 
HETATM    5  C5  UNL     1     -34.111   7.198   5.438  1.00 20.00     0.030 A 
HETATM    6  C6  UNL     1     -34.987   6.007   5.788  1.00 20.00    -0.002 A 
HETATM    7 BR7  UNL     1     -32.355   8.011   3.335  1.00 20.00    -0.056 Br
ENDROOT
TORSDOF 0
