REMARK  0 active torsions:
REMARK  status: ('A' for Active; 'I' for Inactive)
ROOT
HETATM    1  C1  UNL     1     -31.853   7.905   3.873  1.00 20.00     0.001 C 
HETATM    2  C2  UNL     1     -34.075   5.345   6.717  1.00 20.00     0.001 C 
HETATM    3  C3  UNL     1     -33.075   8.392   4.635  1.00 20.00     0.005 C 
HETATM    4  C4  UNL     1     -33.276   6.636   6.533  1.00 20.00     0.005 C 
HETATM    5  C5  UNL     1     -32.195   7.226   2.558  1.00 20.00     0.005 C 
HETATM    6  C6  UNL     1     -35.175   5.372   5.657  1.00 20.00     0.005 C 
HETATM    7  C7  UNL     1     -32.451   4.884   3.738  1.00 20.00     0.010 A 
HETATM    8  C8  UNL     1     -33.926   7.346   5.341  1.00 20.00    -0.010 C 
HETATM    9  C9  UNL     1     -32.762   5.851   2.622  1.00 20.00    -0.010 A 
HETATM   10  C10 UNL     1     -34.613   6.252   4.525  1.00 20.00    -0.006 C 
HETATM   11  C11 UNL     1     -33.860   5.397   3.551  1.00 20.00    -0.006 A 
ENDROOT
TORSDOF 0
