REMARK  1 active torsions:
REMARK  status: ('A' for Active; 'I' for Inactive)
REMARK    1  A    between atoms: C3_3  and  C6_6 
ROOT
HETATM    1  C1  UNL     1     -32.713   9.112   0.701  1.00 20.00     0.013 C 
HETATM    2  C2  UNL     1     -32.613   8.267   1.548  1.00 20.00    -0.107 C 
HETATM    3  C5  UNL     1     -31.711   7.608   3.809  1.00 20.00     0.033 A 
HETATM    4  C6  UNL     1     -33.212   7.522   3.879  1.00 20.00     0.030 A 
HETATM    5  C7  UNL     1     -32.492   7.252   2.565  1.00 20.00     0.027 A 
HETATM    6  C10 UNL     1     -32.361   5.848   2.034  1.00 20.00     0.030 C 
ENDROOT
BRANCH   4   7
HETATM    7  C3  UNL     1     -33.823   6.438   4.634  1.00 20.00    -0.018 C 
HETATM    8  C4  UNL     1     -34.028   6.374   5.964  1.00 20.00    -0.091 C 
HETATM    9  C8  UNL     1     -34.678   5.173   6.594  1.00 20.00     0.042 C 
HETATM   10  C9  UNL     1     -33.638   7.463   6.923  1.00 20.00     0.042 C 
ENDBRANCH   4   7
TORSDOF 1
