REMARK  2 active torsions:
REMARK  status: ('A' for Active; 'I' for Inactive)
REMARK    1  A    between atoms: C1_1  and  C4_4 
REMARK    2  A    between atoms: C1_1  and  C5_5 
ROOT
HETATM    1  C1  UNL     1     -33.821   6.648   5.090  1.00 20.00     0.159 C 
HETATM    2  O6  UNL     1     -33.501   6.979   6.225  1.00 20.00    -0.295 OA
ENDROOT
BRANCH   1   3
HETATM    3  C4  UNL     1     -33.285   7.363   3.927  1.00 20.00     0.058 A 
HETATM    4  C2  UNL     1     -31.795   7.488   3.759  1.00 20.00     0.013 A 
HETATM    5  C3  UNL     1     -32.576   6.589   2.849  1.00 20.00     0.013 A 
ENDBRANCH   1   3
BRANCH   1   6
HETATM    6  C5  UNL     1     -34.761   5.519   4.789  1.00 20.00     0.300 C 
HETATM    7  F7  UNL     1     -34.087   4.348   4.633  1.00 20.00    -0.248 F 
ENDBRANCH   1   6
TORSDOF 2
