REMARK  1 active torsions:
REMARK  status: ('A' for Active; 'I' for Inactive)
REMARK    1  A    between atoms: C3_3  and  C6_6 
ROOT
HETATM    1  C1  UNL     1     -32.568   5.229   2.333  1.00 20.00     0.013 C 
HETATM    2  C2  UNL     1     -33.262   5.502   3.275  1.00 20.00    -0.099 C 
HETATM    3  C4  UNL     1     -34.134   4.625   5.388  1.00 20.00     0.038 C 
HETATM    4  C5  UNL     1     -35.541   6.119   3.922  1.00 20.00     0.038 C 
HETATM    5  C6  UNL     1     -34.123   5.833   4.439  1.00 20.00     0.091 C 
ENDROOT
BRANCH   5   6
HETATM    6  C3  UNL     1     -33.553   7.076   5.158  1.00 20.00     0.238 C 
HETATM    7  O7  UNL     1     -34.085   7.556   6.157  1.00 20.00    -0.278 OA
HETATM    8 CL8  UNL     1     -32.102   7.724   4.426  1.00 20.00    -0.042 Cl
ENDBRANCH   5   6
TORSDOF 1
