REMARK  0 active torsions:
REMARK  status: ('A' for Active; 'I' for Inactive)
ROOT
HETATM    1  C1  UNL     1     -35.206   5.680   6.290  1.00 20.00     0.029 C 
HETATM    2  C2  UNL     1     -35.395   6.038   4.837  1.00 20.00     0.042 C 
HETATM    3  C3  UNL     1     -33.168   5.097   3.964  1.00 20.00     0.070 C 
HETATM    4  C4  UNL     1     -32.422   5.530   2.703  1.00 20.00     0.275 C 
HETATM    5  C5  UNL     1     -33.862   7.289   3.214  1.00 20.00     0.309 C 
HETATM    6  C6  UNL     1     -34.120   6.647   6.710  1.00 20.00     0.169 C 
HETATM    7  C7  UNL     1     -33.970   6.333   4.395  1.00 20.00     0.089 C 
HETATM    8  C8  UNL     1     -32.277   7.569   1.395  1.00 20.00     0.310 C 
HETATM    9  N9  UNL     1     -32.520   6.990   2.707  1.00 20.00     0.087 N 
HETATM   10  O10 UNL     1     -33.322   6.914   5.547  1.00 20.00    -0.378 OA
ENDROOT
TORSDOF 0
