REMARK  1 active torsions:
REMARK  status: ('A' for Active; 'I' for Inactive)
REMARK    1  A    between atoms: C2_2  and  C4_4 
ROOT
HETATM    1  C1  UNL     1     -32.202   7.418   2.115  1.00 20.00     0.107 C 
HETATM    2  C2  UNL     1     -33.316   7.128   4.264  1.00 20.00     0.118 C 
HETATM    3  C3  UNL     1     -32.850   6.633   3.107  1.00 20.00     0.095 C 
HETATM    4  N5  UNL     1     -31.673   8.054   1.301  1.00 20.00    -0.191 NA
HETATM    5 BR9  UNL     1     -33.016   4.814   2.690  1.00 20.00    -0.039 Br
ENDROOT
BRANCH   2   6
HETATM    6  C4  UNL     1     -34.008   6.407   5.373  1.00 20.00     0.409 C 
HETATM    7  F6  UNL     1     -34.328   7.257   6.383  1.00 20.00    -0.167 F 
HETATM    8  F7  UNL     1     -35.157   5.786   5.010  1.00 20.00    -0.167 F 
HETATM    9  F8  UNL     1     -33.204   5.453   5.910  1.00 20.00    -0.167 F 
ENDBRANCH   2   6
TORSDOF 1
