REMARK  5 active torsions:
REMARK  status: ('A' for Active; 'I' for Inactive)
REMARK    1  A    between atoms: C1_1  and  O9_9 
REMARK    2  A    between atoms: C5_5  and  C6_6 
REMARK    3  A    between atoms: C6_6  and  C7_7 
REMARK    4  A    between atoms: C7_7  and  C8_8 
REMARK    5  A    between atoms: C8_8  and  O9_9 
ROOT
HETATM    1  C4  UNL     1     -32.738   4.633   2.481  1.00 20.00     0.040 C 
HETATM    2  C8  UNL     1     -33.315   5.799   3.272  1.00 20.00     0.125 C 
ENDROOT
BRANCH   2   3
HETATM    3  C7  UNL     1     -34.708   5.525   3.848  1.00 20.00     0.032 C 
BRANCH   3   4
HETATM    4  C6  UNL     1     -35.303   6.716   4.599  1.00 20.00     0.002 C 
BRANCH   4   5
HETATM    5  C5  UNL     1     -34.437   7.102   5.800  1.00 20.00    -0.004 C 
HETATM    6  C3  UNL     1     -34.287   5.943   6.773  1.00 20.00     0.005 C 
ENDBRANCH   4   5
ENDBRANCH   3   4
ENDBRANCH   2   3
BRANCH   2   7
HETATM    7  O9  UNL     1     -33.401   6.931   2.406  1.00 20.00    -0.340 OA
BRANCH   7   8
HETATM    8  C1  UNL     1     -32.307   7.661   2.103  1.00 20.00     0.109 C 
HETATM    9  C2  UNL     1     -31.193   7.768   3.096  1.00 20.00     0.089 C 
HETATM   10  S10 UNL     1     -32.287   8.405   0.612  1.00 20.00    -0.058 SA
ENDBRANCH   7   8
ENDBRANCH   2   7
TORSDOF 5
