REMARK  1 active torsions:
REMARK  status: ('A' for Active; 'I' for Inactive)
REMARK    1  A    between atoms: C1_1  and  C5_5 
ROOT
HETATM    1  C3  UNL     1     -33.190   5.024   2.811  1.00 20.00     0.207 C 
HETATM    2  C4  UNL     1     -33.998   4.859   5.058  1.00 20.00     0.208 C 
HETATM    3  C5  UNL     1     -32.784   6.417   3.304  1.00 20.00     0.267 C 
HETATM    4  C6  UNL     1     -34.690   6.218   4.850  1.00 20.00     0.172 C 
HETATM    5  C8  UNL     1     -36.090   6.024   4.244  1.00 20.00     0.051 C 
HETATM    6  C9  UNL     1     -34.830   6.926   6.208  1.00 20.00     0.051 C 
HETATM    7  N10 UNL     1     -33.933   7.083   3.926  1.00 20.00     0.104 N 
HETATM    8  O11 UNL     1     -33.749   4.188   3.826  1.00 20.00    -0.386 OA
HETATM    9  H28 UNL     1     -33.621   7.920   4.420  1.00 20.00     0.318 HD
ENDROOT
BRANCH   3  10
HETATM   10  C1  UNL     1     -32.244   7.236   2.172  1.00 20.00     0.006 C 
HETATM   11  C2  UNL     1     -32.998   8.035   1.403  1.00 20.00    -0.033 C 
HETATM   12  C7  UNL     1     -32.461   8.852   0.275  1.00 20.00     0.036 C 
ENDBRANCH   3  10
TORSDOF 1
