REMARK  0 active torsions:
REMARK  status: ('A' for Active; 'I' for Inactive)
ROOT
HETATM    1  C1  UNL     1     -32.692   6.782   3.874  1.00 20.00     0.411 C 
HETATM    2  C2  UNL     1     -34.159   7.253   5.497  1.00 20.00     0.368 C 
HETATM    3  C3  UNL     1     -34.489   5.907   4.913  1.00 20.00     0.199 C 
HETATM    4  C4  UNL     1     -35.970   5.718   4.637  1.00 20.00     0.070 C 
HETATM    5  O5  UNL     1     -31.754   6.899   3.099  1.00 20.00    -0.229 OA
HETATM    6  O6  UNL     1     -32.836   7.490   5.037  1.00 20.00    -0.257 OA
HETATM    7  O7  UNL     1     -33.743   5.920   3.700  1.00 20.00    -0.265 OA
HETATM    8  F8  UNL     1     -34.154   7.243   6.849  1.00 20.00    -0.214 F 
HETATM    9 CL9  UNL     1     -33.898   4.562   5.936  1.00 20.00    -0.082 Cl
ENDROOT
TORSDOF 0
