REMARK  0 active torsions:
REMARK  status: ('A' for Active; 'I' for Inactive)
ROOT
HETATM    1  C1  UNL     1     -34.753   6.721   4.456  1.00 20.00     0.062 A 
HETATM    2  C2  UNL     1     -33.824   6.358   5.577  1.00 20.00     0.119 A 
HETATM    3  C3  UNL     1     -33.354   6.243   4.152  1.00 20.00     0.112 A 
HETATM    4 CL4  UNL     1     -34.179   4.959   6.557  1.00 20.00    -0.122 Cl
HETATM    5 CL5  UNL     1     -33.183   4.666   3.385  1.00 20.00    -0.105 Cl
HETATM    6 BR6  UNL     1     -32.088   7.546   3.536  1.00 20.00    -0.066 Br
ENDROOT
TORSDOF 0
