REMARK  0 active torsions:
REMARK  status: ('A' for Active; 'I' for Inactive)
ROOT
HETATM    1  C1  UNL     1     -32.869   6.721   2.829  1.00 20.00     0.128 A 
HETATM    2  C2  UNL     1     -33.025   7.111   4.317  1.00 20.00     0.089 A 
HETATM    3  C3  UNL     1     -33.739   5.455   3.001  1.00 20.00     0.089 A 
HETATM    4  C4  UNL     1     -33.492   4.848   5.515  1.00 20.00     0.085 C 
HETATM    5  C5  UNL     1     -35.322   6.073   4.967  1.00 20.00     0.085 C 
HETATM    6  C6  UNL     1     -33.901   5.865   4.458  1.00 20.00    -0.011 A 
HETATM    7  O7  UNL     1     -32.288   7.218   1.887  1.00 20.00    -0.298 OA
HETATM    8  S8  UNL     1     -34.774   5.534   6.630  1.00 20.00    -0.167 SA
ENDROOT
TORSDOF 0
