REMARK  2 active torsions:
REMARK  status: ('A' for Active; 'I' for Inactive)
REMARK    1  A    between atoms: C5_5  and  C6_6 
REMARK    2  A    between atoms: C5_5  and  O8_8 
ROOT
HETATM    1  C1  UNL     1     -32.848   6.301   2.806  1.00 20.00     0.228 C 
HETATM    2  N7  UNL     1     -32.308   7.276   2.481  1.00 20.00    -0.164 NA
HETATM    3  O8  UNL     1     -33.471   5.181   3.169  1.00 20.00    -0.283 OA
ENDROOT
BRANCH   3   4
HETATM    4  C5  UNL     1     -33.225   4.898   4.541  1.00 20.00     0.198 C 
BRANCH   4   5
HETATM    5  C6  UNL     1     -34.104   5.776   5.454  1.00 20.00    -0.029 C 
HETATM    6  C2  UNL     1     -34.417   5.035   6.765  1.00 20.00     0.016 C 
HETATM    7  C3  UNL     1     -35.419   6.094   4.726  1.00 20.00     0.016 C 
HETATM    8  C4  UNL     1     -33.379   7.091   5.787  1.00 20.00     0.016 C 
ENDBRANCH   4   5
ENDBRANCH   3   4
TORSDOF 2
