REMARK  0 active torsions:
REMARK  status: ('A' for Active; 'I' for Inactive)
ROOT
HETATM    1  C1  UNL     1     -33.113   5.822   3.047  1.00 20.00     0.027 C 
HETATM    2  C2  UNL     1     -33.221   7.256   3.582  1.00 20.00     0.012 C 
HETATM    3  C3  UNL     1     -33.653   4.735   3.967  1.00 20.00     0.167 C 
HETATM    4  C4  UNL     1     -34.971   4.997   5.943  1.00 20.00     0.177 C 
HETATM    5  C5  UNL     1     -32.611   7.492   4.964  1.00 20.00     0.074 C 
HETATM    6  C6  UNL     1     -33.932   5.773   6.754  1.00 20.00     0.100 C 
HETATM    7  O7  UNL     1     -34.877   5.176   4.536  1.00 20.00    -0.390 OA
HETATM    8  S8  UNL     1     -33.845   7.538   6.317  1.00 20.00    -0.167 SA
ENDROOT
TORSDOF 0
