REMARK  2 active torsions:
REMARK  status: ('A' for Active; 'I' for Inactive)
REMARK    1  A    between atoms: C1_1  and  C2_2 
REMARK    2  A    between atoms: C1_1  and  C3_3 
ROOT
HETATM    1  C1  UNL     1     -33.240   5.176   4.417  1.00 20.00     0.346 C 
HETATM    2  F4  UNL     1     -34.050   4.076   4.354  1.00 20.00    -0.234 F 
ENDROOT
BRANCH   1   3
HETATM    3  C2  UNL     1     -32.974   5.640   2.991  1.00 20.00     0.357 C 
HETATM    4  F5  UNL     1     -34.123   6.032   2.391  1.00 20.00    -0.184 F 
HETATM    5  F6  UNL     1     -32.474   4.616   2.256  1.00 20.00    -0.184 F 
HETATM    6 CL9  UNL     1     -31.824   6.992   2.961  1.00 20.00    -0.045 Cl
ENDBRANCH   1   3
BRANCH   1   7
HETATM    7  C3  UNL     1     -33.953   6.189   5.303  1.00 20.00     0.357 C 
HETATM    8  F7  UNL     1     -35.104   6.570   4.687  1.00 20.00    -0.184 F 
HETATM    9  F8  UNL     1     -33.195   7.308   5.427  1.00 20.00    -0.184 F 
HETATM   10 CL10 UNL     1     -34.354   5.562   6.910  1.00 20.00    -0.045 Cl
ENDBRANCH   1   7
TORSDOF 2
