REMARK  0 active torsions:
REMARK  status: ('A' for Active; 'I' for Inactive)
ROOT
HETATM    1  C1  UNL     1     -34.986   6.442   4.341  1.00 20.00     0.036 A 
HETATM    2  C2  UNL     1     -33.925   6.341   5.414  1.00 20.00    -0.025 A 
HETATM    3  C3  UNL     1     -33.639   5.858   3.985  1.00 20.00     0.041 A 
HETATM    4  C4  UNL     1     -34.120   5.322   6.511  1.00 20.00     0.016 C 
HETATM    5  C5  UNL     1     -33.312   7.628   5.913  1.00 20.00     0.016 C 
HETATM    6  C6  UNL     1     -33.552   4.392   3.662  1.00 20.00     0.033 C 
HETATM    7 CL7  UNL     1     -32.584   6.855   2.947  1.00 20.00    -0.119 Cl
ENDROOT
TORSDOF 0
