REMARK  0 active torsions:
REMARK  status: ('A' for Active; 'I' for Inactive)
ROOT
HETATM    1  C1  UNL     1     -32.666   7.474   4.153  1.00 20.00     0.023 C 
HETATM    2  C2  UNL     1     -34.749   6.986   7.091  1.00 20.00     0.017 A 
HETATM    3  C3  UNL     1     -34.433   4.839   5.804  1.00 20.00     0.012 C 
HETATM    4  C4  UNL     1     -32.563   6.913   2.788  1.00 20.00     0.110 C 
HETATM    5  C5  UNL     1     -33.649   6.888   6.376  1.00 20.00     0.010 A 
HETATM    6  C6  UNL     1     -34.338   5.639   6.884  1.00 20.00    -0.008 A 
HETATM    7  C7  UNL     1     -33.482   6.778   4.942  1.00 20.00    -0.061 C 
HETATM    8  C8  UNL     1     -33.296   4.800   3.501  1.00 20.00     0.158 C 
HETATM    9  C9  UNL     1     -34.189   5.535   4.498  1.00 20.00     0.040 C 
HETATM   10  N10 UNL     1     -32.843   5.706   2.424  1.00 20.00    -0.301 NA
ENDROOT
TORSDOF 0
