REMARK  2 active torsions:
REMARK  status: ('A' for Active; 'I' for Inactive)
REMARK    1  A    between atoms: C1_1  and  C2_2 
REMARK    2  A    between atoms: C2_2  and  C3_3 
ROOT
HETATM    1  C2  UNL     1     -33.070   6.193   4.585  1.00 20.00     0.218 C 
HETATM    2 CL8  UNL     1     -32.605   6.507   2.887  1.00 20.00    -0.113 Cl
ENDROOT
BRANCH   1   3
HETATM    3  C1  UNL     1     -33.432   7.506   5.265  1.00 20.00     0.251 C 
HETATM    4  F4  UNL     1     -33.744   7.282   6.569  1.00 20.00    -0.254 F 
ENDBRANCH   1   3
BRANCH   1   5
HETATM    5  C3  UNL     1     -34.209   5.193   4.621  1.00 20.00     0.406 C 
HETATM    6  F5  UNL     1     -34.532   4.880   5.896  1.00 20.00    -0.169 F 
HETATM    7  F6  UNL     1     -33.896   4.044   3.985  1.00 20.00    -0.169 F 
HETATM    8  F7  UNL     1     -35.321   5.698   4.040  1.00 20.00    -0.169 F 
ENDBRANCH   1   5
TORSDOF 2
