REMARK  0 active torsions:
REMARK  status: ('A' for Active; 'I' for Inactive)
ROOT
HETATM    1  C1  UNL     1     -33.649   8.248   4.126  1.00 20.00     0.011 A 
HETATM    2  C2  UNL     1     -32.851   8.715   3.080  1.00 20.00     0.024 A 
HETATM    3  C3  UNL     1     -32.496   6.446   2.275  1.00 20.00     0.031 A 
HETATM    4  C4  UNL     1     -33.866   6.883   4.230  1.00 20.00    -0.033 A 
HETATM    5  C5  UNL     1     -33.298   5.992   3.308  1.00 20.00    -0.049 A 
HETATM    6  C6  UNL     1     -32.278   7.820   2.162  1.00 20.00     0.034 A 
HETATM    7  C7  UNL     1     -33.648   4.577   3.649  1.00 20.00     0.041 C 
HETATM    8  C8  UNL     1     -34.858   4.788   4.575  1.00 20.00     0.030 C 
HETATM    9  C9  UNL     1     -34.654   6.147   5.269  1.00 20.00     0.116 C 
HETATM   10 CL10 UNL     1     -31.291   8.425   0.886  1.00 20.00    -0.084 Cl
HETATM   11 CL11 UNL     1     -33.699   5.977   6.757  1.00 20.00    -0.120 Cl
ENDROOT
TORSDOF 0
