REMARK  0 active torsions:
REMARK  status: ('A' for Active; 'I' for Inactive)
ROOT
HETATM    1  C1  UNL     1     -32.551   6.855   2.505  1.00 20.00     0.083 C 
HETATM    2  C2  UNL     1     -34.915   6.019   6.438  1.00 20.00    -0.003 A 
HETATM    3  C3  UNL     1     -33.774   5.244   6.733  1.00 20.00    -0.011 A 
HETATM    4  C4  UNL     1     -34.468   4.840   5.634  1.00 20.00    -0.006 A 
HETATM    5  C5  UNL     1     -34.181   7.110   6.040  1.00 20.00    -0.016 C 
HETATM    6  C6  UNL     1     -32.672   7.456   3.876  1.00 20.00     0.052 C 
HETATM    7  C7  UNL     1     -33.073   6.579   7.030  1.00 20.00     0.023 C 
HETATM    8  C8  UNL     1     -33.219   4.816   3.409  1.00 20.00     0.153 C 
HETATM    9  C9  UNL     1     -34.318   5.502   4.225  1.00 20.00     0.022 C 
HETATM   10  C10 UNL     1     -34.017   7.048   4.429  1.00 20.00     0.007 C 
HETATM   11  N11 UNL     1     -32.821   5.620   2.243  1.00 20.00    -0.305 NA
ENDROOT
TORSDOF 0
