REMARK  0 active torsions:
REMARK  status: ('A' for Active; 'I' for Inactive)
ROOT
HETATM    1  C1  UNL     1     -34.202   6.632   6.664  1.00 20.00     0.128 C 
HETATM    2  C2  UNL     1     -34.797   5.270   6.551  1.00 20.00     0.234 C 
HETATM    3  N3  UNL     1     -33.736   7.197   5.604  1.00 20.00    -0.203 NA
HETATM    4  O4  UNL     1     -34.525   4.866   5.220  1.00 20.00    -0.295 OA
HETATM    5  S5  UNL     1     -33.961   6.148   4.316  1.00 20.00     0.137 SA
ENDROOT
TORSDOF 0
