REMARK  1 active torsions:
REMARK  status: ('A' for Active; 'I' for Inactive)
REMARK    1  A    between atoms: C2_2  and  C6_6 
ROOT
HETATM    1  C3  UNL     1     -33.528   7.241   5.733  1.00 20.00     0.181 C 
HETATM    2  C4  UNL     1     -35.197   5.763   4.583  1.00 20.00     0.181 C 
HETATM    3  C5  UNL     1     -34.180   5.162   6.615  1.00 20.00     0.337 C 
HETATM    4  C6  UNL     1     -34.137   6.851   4.382  1.00 20.00     0.061 C 
HETATM    5  O8  UNL     1     -33.104   6.085   6.457  1.00 20.00    -0.366 OA
HETATM    6  O9  UNL     1     -34.683   4.687   5.369  1.00 20.00    -0.366 OA
ENDROOT
BRANCH   4   7
HETATM    7  C2  UNL     1     -33.071   6.388   3.429  1.00 20.00    -0.085 C 
HETATM    8  C1  UNL     1     -33.092   5.163   2.883  1.00 20.00     0.014 C 
HETATM    9  C7  UNL     1     -31.982   7.373   3.124  1.00 20.00     0.043 C 
ENDBRANCH   4   7
TORSDOF 1
