REMARK  2 active torsions:
REMARK  status: ('A' for Active; 'I' for Inactive)
REMARK    1  A    between atoms: C1_1  and  C2_2 
REMARK    2  A    between atoms: C1_1  and  C3_3 
ROOT
HETATM    1  C2  UNL     1     -32.451   7.294   3.554  1.00 20.00     0.043 A 
HETATM    2  C4  UNL     1     -32.354   5.858   3.693  1.00 20.00     0.013 A 
HETATM    3  C5  UNL     1     -33.564   6.623   4.216  1.00 20.00    -0.023 A 
HETATM    4  C8  UNL     1     -32.430   4.907   2.546  1.00 20.00     0.012 C 
HETATM    5  C9  UNL     1     -34.904   6.484   3.533  1.00 20.00     0.017 C 
HETATM    6  C10 UNL     1     -33.672   6.805   5.711  1.00 20.00     0.017 C 
ENDROOT
BRANCH   1   7
HETATM    7  C1  UNL     1     -32.526   7.928   2.428  1.00 20.00    -0.159 C 
BRANCH   7   8
HETATM    8  C3  UNL     1     -32.601   8.568   1.293  1.00 20.00     0.022 C 
HETATM    9  C6  UNL     1     -32.596   7.859  -0.031  1.00 20.00     0.029 C 
HETATM   10  C7  UNL     1     -32.704  10.065   1.221  1.00 20.00     0.029 C 
ENDBRANCH   7   8
ENDBRANCH   1   7
TORSDOF 2
