REMARK  1 active torsions:
REMARK  status: ('A' for Active; 'I' for Inactive)
REMARK    1  A    between atoms: C4_4  and  C9_9 
ROOT
HETATM    1  C1  UNL     1     -32.401   7.381   2.779  1.00 20.00    -0.089 C 
HETATM    2  C2  UNL     1     -32.288   8.572   2.174  1.00 20.00     0.014 C 
HETATM    3  C5  UNL     1     -32.267   6.080   2.033  1.00 20.00     0.033 C 
HETATM    4  C6  UNL     1     -32.692   7.245   4.252  1.00 20.00     0.042 C 
HETATM    5  C7  UNL     1     -33.488   5.192   2.270  1.00 20.00     0.005 C 
HETATM    6  C8  UNL     1     -33.776   5.004   3.762  1.00 20.00     0.009 C 
HETATM    7  C9  UNL     1     -33.924   6.354   4.482  1.00 20.00     0.017 C 
ENDROOT
BRANCH   7   8
HETATM    8  C4  UNL     1     -34.166   6.141   5.945  1.00 20.00    -0.089 C 
HETATM    9  C3  UNL     1     -34.187   4.916   6.490  1.00 20.00     0.014 C 
HETATM   10  C10 UNL     1     -34.382   7.377   6.767  1.00 20.00     0.043 C 
ENDBRANCH   7   8
TORSDOF 1
