REMARK  0 active torsions:
REMARK  status: ('A' for Active; 'I' for Inactive)
ROOT
HETATM    1  C1  UNL     1     -32.247   6.227   2.493  1.00 20.00    -0.028 C 
HETATM    2  C2  UNL     1     -33.260   5.351   2.485  1.00 20.00    -0.014 C 
HETATM    3  C3  UNL     1     -32.303   7.119   3.694  1.00 20.00     0.043 C 
HETATM    4  C4  UNL     1     -34.294   4.780   6.396  1.00 20.00     0.084 C 
HETATM    5  C5  UNL     1     -33.537   6.040   6.772  1.00 20.00     0.084 C 
HETATM    6  C6  UNL     1     -34.139   5.497   3.698  1.00 20.00     0.083 C 
HETATM    7  C7  UNL     1     -33.762   6.926   4.128  1.00 20.00     0.068 C 
HETATM    8  S8  UNL     1     -33.728   4.110   4.813  1.00 20.00    -0.158 SA
HETATM    9  S9  UNL     1     -34.108   7.472   5.823  1.00 20.00    -0.162 SA
ENDROOT
TORSDOF 0
