REMARK  0 active torsions:
REMARK  status: ('A' for Active; 'I' for Inactive)
ROOT
HETATM    1  C1  UNL     1     -35.352   5.863   4.617  1.00 20.00     0.080 A 
HETATM    2  C2  UNL     1     -34.241   5.034   4.053  1.00 20.00     0.207 A 
HETATM    3  C3  UNL     1     -33.989   5.883   5.265  1.00 20.00     0.128 A 
HETATM    4  F4  UNL     1     -33.704   5.436   2.842  1.00 20.00    -0.246 F 
HETATM    5 CL5  UNL     1     -33.012   7.336   5.084  1.00 20.00    -0.103 Cl
HETATM    6 BR6  UNL     1     -33.788   4.995   6.948  1.00 20.00    -0.065 Br
ENDROOT
TORSDOF 0
