REMARK  0 active torsions:
REMARK  status: ('A' for Active; 'I' for Inactive)
ROOT
HETATM    1  C1  UNL     1     -32.036   8.130   0.999  1.00 20.00     0.012 C 
HETATM    2  C2  UNL     1     -32.339   7.573   2.018  1.00 20.00    -0.113 C 
HETATM    3  C3  UNL     1     -33.536   7.823   4.164  1.00 20.00     0.020 C 
HETATM    4  C4  UNL     1     -33.785   7.193   5.536  1.00 20.00     0.041 C 
HETATM    5  C5  UNL     1     -33.494   5.608   2.959  1.00 20.00     0.052 C 
HETATM    6  C6  UNL     1     -32.711   6.890   3.269  1.00 20.00     0.067 C 
HETATM    7  C7  UNL     1     -34.078   4.984   4.188  1.00 20.00     0.158 A 
HETATM    8  C8  UNL     1     -34.263   5.770   5.467  1.00 20.00     0.084 A 
HETATM    9  C9  UNL     1     -34.404   5.040   6.764  1.00 20.00     0.049 C 
HETATM   10  O10 UNL     1     -35.351   5.546   4.565  1.00 20.00    -0.370 OA
ENDROOT
TORSDOF 0
