REMARK  0 active torsions:
REMARK  status: ('A' for Active; 'I' for Inactive)
ROOT
HETATM    1  C1  UNL     1     -33.632   7.594   5.452  1.00 20.00     0.175 C 
HETATM    2  C2  UNL     1     -33.995   4.833   5.632  1.00 20.00     0.175 C 
HETATM    3  C3  UNL     1     -32.847   5.943   3.343  1.00 20.00     0.175 C 
HETATM    4  C4  UNL     1     -35.559   6.335   3.874  1.00 20.00     0.175 C 
HETATM    5  S5  UNL     1     -33.584   6.258   6.675  1.00 20.00    -0.117 SA
HETATM    6  S6  UNL     1     -32.337   7.463   4.189  1.00 20.00    -0.117 SA
HETATM    7  S7  UNL     1     -32.733   4.463   4.384  1.00 20.00    -0.117 SA
HETATM    8  S8  UNL     1     -35.284   7.889   4.766  1.00 20.00    -0.117 SA
HETATM    9  S9  UNL     1     -35.679   4.890   4.962  1.00 20.00    -0.117 SA
HETATM   10  S10 UNL     1     -34.431   6.095   2.475  1.00 20.00    -0.117 SA
ENDROOT
TORSDOF 0
