REMARK  0 active torsions:
REMARK  status: ('A' for Active; 'I' for Inactive)
ROOT
HETATM    1  C1  UNL     1     -34.851   6.030   6.963  1.00 20.00     0.004 A 
HETATM    2  C2  UNL     1     -35.031   5.081   5.943  1.00 20.00     0.034 A 
HETATM    3  C3  UNL     1     -34.025   7.149   6.786  1.00 20.00     0.021 A 
HETATM    4  C4  UNL     1     -33.560   5.199   2.736  1.00 20.00     0.210 A 
HETATM    5  C5  UNL     1     -34.364   5.281   4.724  1.00 20.00     0.086 A 
HETATM    6  C6  UNL     1     -33.558   6.400   4.590  1.00 20.00     0.081 A 
HETATM    7  C7  UNL     1     -33.346   7.353   5.582  1.00 20.00     0.029 A 
HETATM    8  C8  UNL     1     -32.188   7.332   2.759  1.00 20.00     0.140 C 
HETATM    9  C9  UNL     1     -31.319   8.002   3.831  1.00 20.00     0.100 C 
HETATM   10  N10 UNL     1     -34.351   4.540   3.561  1.00 20.00    -0.242 NA
HETATM   11  N11 UNL     1     -33.066   6.325   3.317  1.00 20.00    -0.338 N 
HETATM   12  S12 UNL     1     -32.288   8.722   5.223  1.00 20.00    -0.126 SA
ENDROOT
TORSDOF 0
