REMARK  1 active torsions:
REMARK  status: ('A' for Active; 'I' for Inactive)
REMARK    1  A    between atoms: C1_1  and  C8_8 
ROOT
HETATM    1  C1  UNL     1     -33.471   6.232   3.781  1.00 20.00     0.069 C 
HETATM    2  C2  UNL     1     -33.595   7.179   5.833  1.00 20.00     0.169 C 
HETATM    3  C3  UNL     1     -33.959   5.733   6.202  1.00 20.00     0.025 C 
HETATM    4  C4  UNL     1     -35.117   5.670   7.194  1.00 20.00     0.029 C 
HETATM    5  C5  UNL     1     -32.747   4.961   6.731  1.00 20.00     0.029 C 
HETATM    6  N9  UNL     1     -33.033   7.236   4.465  1.00 20.00    -0.285 NA
HETATM    7  S10 UNL     1     -34.457   5.046   4.592  1.00 20.00    -0.104 SA
ENDROOT
BRANCH   1   8
HETATM    8  C8  UNL     1     -33.142   6.011   2.344  1.00 20.00     0.036 C 
HETATM    9  C6  UNL     1     -32.265   7.144   1.813  1.00 20.00     0.016 C 
HETATM   10  C7  UNL     1     -32.458   4.659   2.138  1.00 20.00     0.016 C 
ENDBRANCH   1   8
TORSDOF 1
