REMARK  2 active torsions:
REMARK  status: ('A' for Active; 'I' for Inactive)
REMARK    1  A    between atoms: C1_1  and  C2_2 
REMARK    2  A    between atoms: C1_1  and  C3_3 
ROOT
HETATM    1  C2  UNL     1     -34.343   7.136   4.992  1.00 20.00     0.043 A 
HETATM    2  C4  UNL     1     -35.121   5.938   5.216  1.00 20.00     0.013 A 
HETATM    3  C5  UNL     1     -34.151   6.459   6.270  1.00 20.00    -0.023 A 
HETATM    4  C8  UNL     1     -34.906   4.661   4.478  1.00 20.00     0.012 C 
HETATM    5  C9  UNL     1     -34.746   7.128   7.486  1.00 20.00     0.017 C 
HETATM    6  C10 UNL     1     -32.875   5.707   6.566  1.00 20.00     0.017 C 
ENDROOT
BRANCH   1   7
HETATM    7  C1  UNL     1     -33.437   7.274   4.078  1.00 20.00    -0.159 C 
BRANCH   7   8
HETATM    8  C3  UNL     1     -32.523   7.414   3.156  1.00 20.00     0.022 C 
HETATM    9  C6  UNL     1     -32.171   6.309   2.201  1.00 20.00     0.029 C 
HETATM   10  C7  UNL     1     -31.754   8.691   2.976  1.00 20.00     0.029 C 
ENDBRANCH   7   8
ENDBRANCH   1   7
TORSDOF 2
