REMARK  0 active torsions:
REMARK  status: ('A' for Active; 'I' for Inactive)
ROOT
HETATM    1  C1  UNL     1     -33.337   7.439   5.497  1.00 20.00     0.141 C 
HETATM    2  C2  UNL     1     -33.921   7.113   6.857  1.00 20.00     0.079 C 
HETATM    3  C3  UNL     1     -34.564   5.732   6.862  1.00 20.00     0.008 C 
HETATM    4  C4  UNL     1     -35.525   5.531   5.685  1.00 20.00     0.017 C 
HETATM    5  C5  UNL     1     -32.402   6.435   2.413  1.00 20.00     0.085 C 
HETATM    6  C6  UNL     1     -33.090   5.086   2.315  1.00 20.00     0.084 C 
HETATM    7  C7  UNL     1     -34.288   7.243   4.322  1.00 20.00     0.130 C 
HETATM    8  C8  UNL     1     -34.883   5.829   4.315  1.00 20.00     0.068 C 
HETATM    9  O9  UNL     1     -32.206   7.911   5.397  1.00 20.00    -0.297 OA
HETATM   10  S10 UNL     1     -33.567   7.788   2.743  1.00 20.00    -0.155 SA
HETATM   11  S11 UNL     1     -33.673   4.503   3.929  1.00 20.00    -0.162 SA
ENDROOT
TORSDOF 0
