REMARK  3 active torsions:
REMARK  status: ('A' for Active; 'I' for Inactive)
REMARK    1  A    between atoms: C1_1  and  C7_7 
REMARK    2  A    between atoms: C2_2  and  C8_8 
REMARK    3  A    between atoms: C8_8  and  C9_9 
ROOT
HETATM    1  C1  UNL     1     -32.380   6.214   2.775  1.00 20.00     0.157 A 
HETATM    2  C2  UNL     1     -33.528   5.553   3.498  1.00 20.00     0.185 A 
HETATM    3  O10 UNL     1     -33.643   5.986   2.136  1.00 20.00    -0.372 OA
ENDROOT
BRANCH   2   4
HETATM    4  C8  UNL     1     -34.413   6.276   4.463  1.00 20.00     0.204 C 
HETATM    5  F11 UNL     1     -35.612   5.632   4.510  1.00 20.00    -0.246 F 
BRANCH   4   6
HETATM    6  C9  UNL     1     -33.838   6.378   5.885  1.00 20.00     0.014 C 
HETATM    7  C5  UNL     1     -34.030   5.090   6.689  1.00 20.00     0.012 C 
HETATM    8  C6  UNL     1     -34.493   7.544   6.630  1.00 20.00     0.012 C 
ENDBRANCH   4   6
ENDBRANCH   2   4
BRANCH   1   9
HETATM    9  C7  UNL     1     -32.021   7.645   2.953  1.00 20.00     0.009 C 
HETATM   10  C3  UNL     1     -31.140   7.870   4.199  1.00 20.00     0.012 C 
HETATM   11  C4  UNL     1     -31.297   8.217   1.717  1.00 20.00     0.012 C 
ENDBRANCH   1   9
TORSDOF 3
