REMARK  2 active torsions:
REMARK  status: ('A' for Active; 'I' for Inactive)
REMARK    1  A    between atoms: C7_7  and  C9_9 
REMARK    2  A    between atoms: C8_8  and  C10_10 
ROOT
HETATM    1  C1  UNL     1     -32.077   7.710   1.906  1.00 20.00     0.012 C 
HETATM    2  C2  UNL     1     -32.543   7.110   2.836  1.00 20.00    -0.112 C 
HETATM    3  C6  UNL     1     -33.101   6.392   3.947  1.00 20.00     0.074 A 
HETATM    4  C9  UNL     1     -34.511   6.733   4.377  1.00 20.00     0.015 A 
HETATM    5  C10 UNL     1     -33.328   7.148   5.238  1.00 20.00     0.015 A 
ENDROOT
BRANCH   4   6
HETATM    6  C7  UNL     1     -35.378   5.905   5.336  1.00 20.00     0.014 C 
HETATM    7  C3  UNL     1     -34.689   4.632   5.787  1.00 20.00    -0.025 C 
HETATM    8  C4  UNL     1     -33.643   4.998   6.549  1.00 20.00    -0.025 C 
HETATM    9  C8  UNL     1     -33.639   6.514   6.602  1.00 20.00     0.014 C 
HETATM   10  C5  UNL     1     -35.171   6.708   6.639  1.00 20.00     0.018 C 
ENDBRANCH   4   6
TORSDOF 2
