REMARK  4 active torsions:
REMARK  status: ('A' for Active; 'I' for Inactive)
REMARK    1  A    between atoms: C1_1  and  C7_7 
REMARK    2  A    between atoms: C1_1  and  C8_8 
REMARK    3  A    between atoms: C5_5  and  C6_6 
REMARK    4  A    between atoms: C6_6  and  C8_8 
ROOT
HETATM    1  C1  UNL     1     -33.677   5.870   3.961  1.00 20.00     0.148 C 
HETATM    2  O9  UNL     1     -33.247   4.873   3.379  1.00 20.00    -0.296 OA
ENDROOT
BRANCH   1   3
HETATM    3  C7  UNL     1     -34.565   5.760   5.200  1.00 20.00     0.049 C 
HETATM    4  C3  UNL     1     -34.419   6.992   6.091  1.00 20.00     0.017 C 
HETATM    5  C4  UNL     1     -34.224   4.491   5.971  1.00 20.00     0.017 C 
ENDBRANCH   1   3
BRANCH   1   6
HETATM    6  C8  UNL     1     -33.357   7.275   3.470  1.00 20.00     0.152 C 
HETATM    7 CL10 UNL     1     -31.932   7.824   4.396  1.00 20.00    -0.117 Cl
BRANCH   6   8
HETATM    8  C6  UNL     1     -33.053   7.301   1.972  1.00 20.00     0.027 C 
BRANCH   8   9
HETATM    9  C5  UNL     1     -32.777   8.720   1.466  1.00 20.00    -0.003 C 
HETATM   10  C2  UNL     1     -32.541   8.738  -0.036  1.00 20.00     0.005 C 
ENDBRANCH   8   9
ENDBRANCH   6   8
ENDBRANCH   1   6
TORSDOF 4
