REMARK  1 active torsions:
REMARK  status: ('A' for Active; 'I' for Inactive)
REMARK    1  A    between atoms: C9_9  and  O10_10 
ROOT
HETATM    1  C1  UNL     1     -32.225   7.940   4.649  1.00 20.00     0.053 A 
HETATM    2  C2  UNL     1     -33.531   5.881   3.214  1.00 20.00     0.055 A 
HETATM    3  C3  UNL     1     -33.326   7.287   5.179  1.00 20.00    -0.046 A 
HETATM    4  C4  UNL     1     -33.974   6.267   4.469  1.00 20.00    -0.020 A 
HETATM    5  C5  UNL     1     -31.765   7.547   3.391  1.00 20.00     0.155 A 
HETATM    6  C6  UNL     1     -32.413   6.526   2.679  1.00 20.00     0.155 A 
HETATM    7  C7  UNL     1     -34.015   7.555   6.480  1.00 20.00     0.042 C 
HETATM    8  C8  UNL     1     -34.829   6.266   6.653  1.00 20.00     0.041 C 
HETATM    9  C9  UNL     1     -35.160   5.766   5.236  1.00 20.00     0.152 C 
HETATM   10  F11 UNL     1     -30.700   8.156   2.853  1.00 20.00    -0.203 F 
HETATM   11  F12 UNL     1     -31.959   6.171   1.469  1.00 20.00    -0.203 F 
ENDROOT
BRANCH   9  12
HETATM   12  O10 UNL     1     -35.255   4.356   5.206  1.00 20.00    -0.391 OA
HETATM   13  H20 UNL     1     -36.043   4.110   5.721  1.00 20.00     0.210 HD
ENDBRANCH   9  12
TORSDOF 1
