REMARK  1 active torsions:
REMARK  status: ('A' for Active; 'I' for Inactive)
REMARK    1  A    between atoms: C7_7  and  O10_10 
ROOT
HETATM    1  C1  UNL     1     -33.389   9.375   3.079  1.00 20.00     0.013 C 
HETATM    2  C2  UNL     1     -33.412   8.410   3.792  1.00 20.00    -0.102 C 
HETATM    3  C3  UNL     1     -33.888   5.911   4.181  1.00 20.00    -0.040 C 
HETATM    4  C4  UNL     1     -33.318   5.161   3.229  1.00 20.00     0.019 C 
HETATM    5  C5  UNL     1     -34.891   6.204   6.353  1.00 20.00     0.043 C 
HETATM    6  C6  UNL     1     -32.564   7.295   5.884  1.00 20.00     0.034 A 
HETATM    7  C7  UNL     1     -35.052   5.445   5.024  1.00 20.00     0.148 C 
HETATM    8  C8  UNL     1     -34.055   7.413   6.026  1.00 20.00     0.015 A 
HETATM    9  C9  UNL     1     -33.438   7.251   4.648  1.00 20.00     0.052 A 
ENDROOT
BRANCH   7  10
HETATM   10  O10 UNL     1     -36.260   5.845   4.387  1.00 20.00    -0.391 OA
HETATM   11  H20 UNL     1     -36.987   5.533   4.949  1.00 20.00     0.210 HD
ENDBRANCH   7  10
TORSDOF 1
