REMARK  4 active torsions:
REMARK  status: ('A' for Active; 'I' for Inactive)
REMARK    1  A    between atoms: C2_2  and  C9_9 
REMARK    2  A    between atoms: C7_7  and  C8_8 
REMARK    3  A    between atoms: C8_8  and  C9_9 
REMARK    4  A    between atoms: C9_9  and  O11_11 
ROOT
HETATM    1  C3  UNL     1     -33.132   7.282   5.441  1.00 20.00     0.031 C 
HETATM    2  C4  UNL     1     -33.887   5.065   4.541  1.00 20.00     0.031 C 
HETATM    3  C5  UNL     1     -34.067   7.043   6.620  1.00 20.00     0.168 C 
HETATM    4  C6  UNL     1     -34.780   4.950   5.771  1.00 20.00     0.168 C 
HETATM    5  C7  UNL     1     -33.628   6.536   4.197  1.00 20.00    -0.008 C 
HETATM    6  O10 UNL     1     -34.209   5.646   6.878  1.00 20.00    -0.391 OA
ENDROOT
BRANCH   5   7
HETATM    7  C8  UNL     1     -32.634   6.665   3.045  1.00 20.00     0.040 C 
BRANCH   7   8
HETATM    8  C9  UNL     1     -32.453   8.106   2.560  1.00 20.00     0.140 C 
BRANCH   8   9
HETATM    9  C2  UNL     1     -31.950   8.187   1.148  1.00 20.00    -0.006 C 
HETATM   10  C1  UNL     1     -32.576   8.849   0.169  1.00 20.00     0.009 C 
ENDBRANCH   8   9
BRANCH   8  11
HETATM   11  O11 UNL     1     -31.486   8.745   3.393  1.00 20.00    -0.392 OA
HETATM   12  H27 UNL     1     -31.420   9.661   3.084  1.00 20.00     0.210 HD
ENDBRANCH   8  11
ENDBRANCH   7   8
ENDBRANCH   5   7
TORSDOF 4
