REMARK  2 active torsions:
REMARK  status: ('A' for Active; 'I' for Inactive)
REMARK    1  A    between atoms: C7_7  and  C9_9 
REMARK    2  A    between atoms: C8_8  and  C10_10 
ROOT
HETATM    1  C1  UNL     1     -35.437   5.591   4.016  1.00 20.00     0.005 C 
HETATM    2  C2  UNL     1     -35.535   6.984   4.650  1.00 20.00     0.005 C 
HETATM    3  C3  UNL     1     -34.181   4.768   6.009  1.00 20.00     0.005 C 
HETATM    4  C4  UNL     1     -34.277   6.170   6.645  1.00 20.00     0.005 C 
HETATM    5  C7  UNL     1     -34.153   4.880   4.470  1.00 20.00    -0.010 C 
HETATM    6  C8  UNL     1     -34.318   7.255   5.548  1.00 20.00    -0.010 C 
ENDROOT
BRANCH   5   7
HETATM    7  C9  UNL     1     -32.911   5.717   4.109  1.00 20.00    -0.006 A 
HETATM    8  C5  UNL     1     -32.738   6.365   2.719  1.00 20.00     0.006 A 
HETATM    9  C6  UNL     1     -32.840   7.762   3.351  1.00 20.00     0.006 A 
HETATM   10  C10 UNL     1     -33.010   7.123   4.746  1.00 20.00    -0.006 A 
ENDBRANCH   5   7
TORSDOF 2
