REMARK  1 active torsions:
REMARK  status: ('A' for Active; 'I' for Inactive)
REMARK    1  A    between atoms: C2_2  and  C4_4 
ROOT
HETATM    1  C1  UNL     1     -33.671   7.184   5.552  1.00 20.00    -0.010 C 
HETATM    2  C2  UNL     1     -33.864   6.225   4.632  1.00 20.00     0.021 C 
HETATM    3  C3  UNL     1     -34.425   7.369   6.829  1.00 20.00     0.037 C 
HETATM    4 CL5  UNL     1     -35.072   5.009   4.938  1.00 20.00    -0.088 Cl
ENDROOT
BRANCH   2   5
HETATM    5  C4  UNL     1     -33.108   6.041   3.354  1.00 20.00     0.165 C 
HETATM    6 CL6  UNL     1     -31.869   7.304   3.180  1.00 20.00    -0.125 Cl
ENDBRANCH   2   5
TORSDOF 1
