REMARK  0 active torsions:
REMARK  status: ('A' for Active; 'I' for Inactive)
ROOT
HETATM    1  C1  UNL     1     -32.983   6.407   3.371  1.00 20.00    -0.081 C 
HETATM    2  C2  UNL     1     -33.058   5.147   2.908  1.00 20.00     0.015 C 
HETATM    3  C3  UNL     1     -31.881   7.305   2.843  1.00 20.00     0.034 C 
HETATM    4  C4  UNL     1     -32.469   8.531   2.149  1.00 20.00     0.004 C 
HETATM    5  C5  UNL     1     -33.472   9.266   3.033  1.00 20.00     0.001 C 
HETATM    6  C6  UNL     1     -34.156   5.618   6.980  1.00 20.00     0.000 C 
HETATM    7  C7  UNL     1     -32.918   6.407   6.580  1.00 20.00     0.001 C 
HETATM    8  C8  UNL     1     -34.898   5.095   5.759  1.00 20.00     0.001 C 
HETATM    9  C9  UNL     1     -34.549   8.321   3.574  1.00 20.00     0.014 C 
HETATM   10  C10 UNL     1     -33.284   7.555   5.640  1.00 20.00     0.014 C 
HETATM   11  C11 UNL     1     -35.207   6.203   4.746  1.00 20.00     0.014 C 
HETATM   12  C12 UNL     1     -33.984   7.081   4.332  1.00 20.00    -0.018 C 
ENDROOT
TORSDOF 0
