REMARK  1 active torsions:
REMARK  status: ('A' for Active; 'I' for Inactive)
REMARK    1  A    between atoms: C4_4  and  O11_11 
ROOT
HETATM    1  C1  UNL     1     -33.427   7.455   5.939  1.00 20.00    -0.021 C 
HETATM    2  C2  UNL     1     -33.997   6.558   6.760  1.00 20.00    -0.025 C 
HETATM    3  C3  UNL     1     -33.674   5.935   4.031  1.00 20.00    -0.043 C 
HETATM    4  C4  UNL     1     -32.935   5.699   2.944  1.00 20.00     0.045 C 
HETATM    5  C5  UNL     1     -34.316   4.888   4.934  1.00 20.00     0.046 C 
HETATM    6  C6  UNL     1     -35.496   6.952   5.043  1.00 20.00     0.022 C 
HETATM    7  C7  UNL     1     -34.074   7.292   4.582  1.00 20.00     0.040 C 
HETATM    8  C8  UNL     1     -35.036   5.806   5.952  1.00 20.00     0.013 C 
HETATM    9  C9  UNL     1     -32.332   6.777   2.100  1.00 20.00     0.076 C 
ENDROOT
BRANCH   4  10
HETATM   10  O11 UNL     1     -32.689   4.401   2.538  1.00 20.00    -0.360 OA
HETATM   11  C10 UNL     1     -33.665   3.922   1.646  1.00 20.00     0.209 C 
ENDBRANCH   4  10
TORSDOF 1
