REMARK  0 active torsions:
REMARK  status: ('A' for Active; 'I' for Inactive)
ROOT
HETATM    1  C1  UNL     1     -35.227   6.082   4.484  1.00 20.00     0.177 A 
HETATM    2  C2  UNL     1     -34.085   5.166   4.225  1.00 20.00     0.218 A 
HETATM    3  O3  UNL     1     -33.212   7.526   5.280  1.00 20.00    -0.226 OA
HETATM    4  O4  UNL     1     -34.235   5.751   6.872  1.00 20.00    -0.226 OA
HETATM    5  S5  UNL     1     -33.748   6.227   5.602  1.00 20.00     0.165 S 
HETATM    6 CL6  UNL     1     -33.134   5.364   2.775  1.00 20.00    -0.107 Cl
ENDROOT
TORSDOF 0
