REMARK  2 active torsions:
REMARK  status: ('A' for Active; 'I' for Inactive)
REMARK    1  A    between atoms: C1_1  and  C2_2 
REMARK    2  A    between atoms: C1_1  and  C3_3 
ROOT
HETATM    1  C1  UNL     1     -33.018   6.098   4.823  1.00 20.00     0.348 C 
HETATM    2  F4  UNL     1     -33.024   7.199   5.635  1.00 20.00    -0.234 F 
ENDROOT
BRANCH   1   3
HETATM    3  C2  UNL     1     -34.150   5.208   5.293  1.00 20.00     0.423 C 
HETATM    4  F5  UNL     1     -34.051   4.909   6.605  1.00 20.00    -0.168 F 
HETATM    5  F6  UNL     1     -35.352   5.786   5.087  1.00 20.00    -0.168 F 
HETATM    6  F7  UNL     1     -34.136   4.038   4.615  1.00 20.00    -0.168 F 
ENDBRANCH   1   3
BRANCH   1   7
HETATM    7  C3  UNL     1     -33.136   6.585   3.378  1.00 20.00     0.294 C 
HETATM    8  F8  UNL     1     -34.334   7.211   3.220  1.00 20.00    -0.204 F 
HETATM    9 CL9  UNL     1     -33.085   5.195   2.257  1.00 20.00    -0.062 Cl
HETATM   10 CL10 UNL     1     -31.837   7.721   2.939  1.00 20.00    -0.062 Cl
ENDBRANCH   1   7
TORSDOF 2
