REMARK  2 active torsions:
REMARK  status: ('A' for Active; 'I' for Inactive)
REMARK    1  A    between atoms: C4_4  and  C8_8 
REMARK    2  A    between atoms: C9_9  and  O11_11 
ROOT
HETATM    1  C1  UNL     1     -33.382   5.841   3.337  1.00 20.00    -0.079 C 
HETATM    2  C2  UNL     1     -32.641   5.134   2.468  1.00 20.00     0.015 C 
HETATM    3  C5  UNL     1     -34.518   5.180   4.083  1.00 20.00     0.065 C 
HETATM    4  C6  UNL     1     -32.987   7.434   5.222  1.00 20.00     0.016 C 
HETATM    5  C7  UNL     1     -34.126   6.777   6.003  1.00 20.00     0.033 C 
HETATM    6  C8  UNL     1     -33.187   7.307   3.699  1.00 20.00     0.041 C 
HETATM    7  C9  UNL     1     -34.326   5.317   5.593  1.00 20.00     0.122 C 
ENDROOT
BRANCH   6   8
HETATM    8  C4  UNL     1     -32.078   8.008   2.968  1.00 20.00    -0.085 C 
HETATM    9  C3  UNL     1     -30.829   8.060   3.455  1.00 20.00     0.014 C 
HETATM   10  C10 UNL     1     -32.447   8.645   1.661  1.00 20.00     0.043 C 
ENDBRANCH   6   8
BRANCH   7  11
HETATM   11  O11 UNL     1     -35.479   4.794   6.246  1.00 20.00    -0.395 OA
HETATM   12  H27 UNL     1     -35.328   4.895   7.199  1.00 20.00     0.210 HD
ENDBRANCH   7  11
TORSDOF 2
