REMARK  0 active torsions:
REMARK  status: ('A' for Active; 'I' for Inactive)
ROOT
HETATM    1  C1  UNL     1     -33.887   7.513   6.336  1.00 20.00     0.005 C 
HETATM    2  C2  UNL     1     -34.277   5.075   6.682  1.00 20.00     0.005 C 
HETATM    3  C3  UNL     1     -32.862   7.388   5.192  1.00 20.00     0.005 C 
HETATM    4  C4  UNL     1     -33.313   4.566   5.592  1.00 20.00     0.005 C 
HETATM    5  C5  UNL     1     -34.899   7.223   3.842  1.00 20.00     0.010 C 
HETATM    6  C6  UNL     1     -35.259   4.973   4.161  1.00 20.00     0.010 C 
HETATM    7  C7  UNL     1     -34.959   6.400   6.269  1.00 20.00    -0.010 C 
HETATM    8  C8  UNL     1     -33.480   6.651   3.990  1.00 20.00    -0.010 C 
HETATM    9  C9  UNL     1     -33.727   5.101   4.210  1.00 20.00    -0.010 C 
HETATM   10  C10 UNL     1     -35.623   6.302   4.830  1.00 20.00    -0.010 C 
ENDROOT
TORSDOF 0
