REMARK  3 active torsions:
REMARK  status: ('A' for Active; 'I' for Inactive)
REMARK    1  A    between atoms: C1_1  and  C3_3 
REMARK    2  A    between atoms: C2_2  and  C4_4 
REMARK    3  A    between atoms: C5_5  and  C6_6 
ROOT
HETATM    1  C3  UNL     1     -32.726   5.997   3.240  1.00 20.00     0.010 C 
HETATM    2  C5  UNL     1     -33.759   6.179   4.082  1.00 20.00    -0.017 C 
HETATM    3  C7  UNL     1     -34.632   7.389   4.215  1.00 20.00     0.052 C 
ENDROOT
BRANCH   1   4
HETATM    4  C1  UNL     1     -32.211   6.973   2.302  1.00 20.00     0.004 C 
HETATM    5  C2  UNL     1     -33.010   7.779   1.591  1.00 20.00     0.041 C 
BRANCH   5   6
HETATM    6  C4  UNL     1     -32.404   8.743   0.651  1.00 20.00     0.258 C 
HETATM    7  O9  UNL     1     -33.085   9.504  -0.025  1.00 20.00    -0.302 OA
ENDBRANCH   5   6
ENDBRANCH   1   4
BRANCH   2   8
HETATM    8  C6  UNL     1     -34.090   5.011   4.956  1.00 20.00     0.151 C 
HETATM    9  C8  UNL     1     -34.014   5.216   6.446  1.00 20.00     0.096 C 
HETATM   10  O10 UNL     1     -34.429   3.931   4.475  1.00 20.00    -0.293 OA
ENDBRANCH   2   8
TORSDOF 3
