REMARK  2 active torsions:
REMARK  status: ('A' for Active; 'I' for Inactive)
REMARK    1  A    between atoms: C2_2  and  C5_5 
REMARK    2  A    between atoms: C5_5  and  C6_6 
ROOT
HETATM    1  C5  UNL     1     -32.281   6.455   3.039  1.00 20.00     0.042 C 
ENDROOT
BRANCH   1   2
HETATM    2  C2  UNL     1     -32.384   7.816   2.408  1.00 20.00    -0.030 C 
HETATM    3  C1  UNL     1     -32.403   8.025   1.083  1.00 20.00    -0.035 C 
HETATM    4  C3  UNL     1     -32.500   9.377   0.457  1.00 20.00     0.036 C 
ENDBRANCH   1   2
BRANCH   1   5
HETATM    5  C6  UNL     1     -33.480   6.122   3.932  1.00 20.00     0.057 C 
HETATM    6  C4  UNL     1     -33.563   4.632   4.229  1.00 20.00     0.022 C 
HETATM    7 BR7  UNL     1     -33.321   7.072   5.643  1.00 20.00    -0.091 Br
ENDBRANCH   1   5
TORSDOF 2
