REMARK  0 active torsions:
REMARK  status: ('A' for Active; 'I' for Inactive)
ROOT
HETATM    1  C1  UNL     1     -33.958   4.805   3.772  1.00 20.00     0.043 C 
HETATM    2  C2  UNL     1     -32.772   7.477   5.070  1.00 20.00     0.019 C 
HETATM    3  C3  UNL     1     -33.638   6.877   5.898  1.00 20.00     0.114 C 
HETATM    4  C4  UNL     1     -32.936   5.300   3.058  1.00 20.00     0.136 C 
HETATM    5  C5  UNL     1     -34.965   5.508   4.615  1.00 20.00     0.118 C 
HETATM    6  C6  UNL     1     -33.034   7.632   3.607  1.00 20.00     0.203 C 
HETATM    7  N7  UNL     1     -34.867   6.392   5.555  1.00 20.00    -0.273 NA
HETATM    8  O8  UNL     1     -32.437   6.559   2.888  1.00 20.00    -0.359 OA
ENDROOT
TORSDOF 0
