REMARK  0 active torsions:
REMARK  status: ('A' for Active; 'I' for Inactive)
ROOT
HETATM    1  C1  UNL     1     -33.484   4.093   5.555  1.00 20.00     0.001 C 
HETATM    2  C2  UNL     1     -34.114   4.238   4.156  1.00 20.00     0.005 C 
HETATM    3  C3  UNL     1     -33.216   6.583   3.548  1.00 20.00     0.005 C 
HETATM    4  C4  UNL     1     -33.028   7.697   4.601  1.00 20.00     0.006 C 
HETATM    5  C5  UNL     1     -34.219   4.903   6.638  1.00 20.00     0.010 C 
HETATM    6  C6  UNL     1     -35.359   6.274   4.881  1.00 20.00     0.014 C 
HETATM    7  C7  UNL     1     -34.348   7.555   6.919  1.00 20.00     0.015 A 
HETATM    8  C8  UNL     1     -34.477   5.696   3.769  1.00 20.00    -0.014 C 
HETATM    9  C9  UNL     1     -33.241   7.149   5.980  1.00 20.00    -0.005 A 
HETATM   10  C10 UNL     1     -34.484   6.290   6.113  1.00 20.00    -0.036 A 
ENDROOT
TORSDOF 0
