REMARK  0 active torsions:
REMARK  status: ('A' for Active; 'I' for Inactive)
ROOT
HETATM    1  C1  UNL     1     -33.683   6.448   3.716  1.00 20.00    -0.064 A 
HETATM    2  C2  UNL     1     -32.888   6.151   2.712  1.00 20.00    -0.084 C 
HETATM    3  C3  UNL     1     -34.041   6.513   6.846  1.00 20.00     0.002 C 
HETATM    4  C4  UNL     1     -33.429   7.611   5.964  1.00 20.00     0.010 C 
HETATM    5  C5  UNL     1     -34.321   5.334   5.901  1.00 20.00     0.014 C 
HETATM    6  C6  UNL     1     -34.096   7.432   4.634  1.00 20.00     0.028 A 
HETATM    7  C7  UNL     1     -34.695   5.991   4.593  1.00 20.00    -0.013 A 
HETATM    8  C8  UNL     1     -32.878   4.790   2.049  1.00 20.00     0.043 C 
HETATM    9  C9  UNL     1     -31.906   7.142   2.123  1.00 20.00     0.043 C 
HETATM   10  C10 UNL     1     -36.089   5.790   4.094  1.00 20.00     0.021 C 
ENDROOT
TORSDOF 0
