REMARK  0 active torsions:
REMARK  status: ('A' for Active; 'I' for Inactive)
ROOT
HETATM    1  C1  UNL     1     -32.986   4.747   2.188  1.00 20.00     0.010 A 
HETATM    2  C2  UNL     1     -32.476   6.049   2.745  1.00 20.00     0.010 A 
HETATM    3  C3  UNL     1     -34.152   6.694   6.157  1.00 20.00     0.010 A 
HETATM    4  C4  UNL     1     -35.087   5.556   6.465  1.00 20.00     0.010 A 
HETATM    5  C5  UNL     1     -34.864   5.641   3.828  1.00 20.00     0.019 C 
HETATM    6  C6  UNL     1     -33.254   4.586   4.818  1.00 20.00     0.019 C 
HETATM    7  C7  UNL     1     -33.477   5.240   3.511  1.00 20.00    -0.038 A 
HETATM    8  C8  UNL     1     -34.303   5.557   5.193  1.00 20.00    -0.038 A 
ENDROOT
TORSDOF 0
