REMARK  0 active torsions:
REMARK  status: ('A' for Active; 'I' for Inactive)
ROOT
HETATM    1  C1  UNL     1     -33.442   7.438   5.988  1.00 20.00     0.141 C 
HETATM    2  C2  UNL     1     -34.463   6.833   6.927  1.00 20.00     0.079 C 
HETATM    3  C3  UNL     1     -34.496   5.324   6.768  1.00 20.00     0.008 C 
HETATM    4  C4  UNL     1     -34.747   4.929   5.316  1.00 20.00     0.017 C 
HETATM    5  C5  UNL     1     -32.549   7.162   1.925  1.00 20.00     0.085 C 
HETATM    6  C6  UNL     1     -32.644   5.651   1.801  1.00 20.00     0.084 C 
HETATM    7  C7  UNL     1     -33.559   7.030   4.516  1.00 20.00     0.130 C 
HETATM    8  C8  UNL     1     -33.659   5.502   4.392  1.00 20.00     0.068 C 
HETATM    9  O9  UNL     1     -32.650   8.283   6.405  1.00 20.00    -0.297 OA
HETATM   10  S10 UNL     1     -32.116   7.694   3.605  1.00 20.00    -0.155 SA
HETATM   11  S11 UNL     1     -34.075   4.971   2.687  1.00 20.00    -0.162 SA
ENDROOT
TORSDOF 0
