REMARK  5 active torsions:
REMARK  status: ('A' for Active; 'I' for Inactive)
REMARK    1  A    between atoms: C1_1  and  C5_5 
REMARK    2  A    between atoms: C1_1  and  S10_10 
REMARK    3  A    between atoms: C5_5  and  C8_8 
REMARK    4  A    between atoms: C6_6  and  C7_7 
REMARK    5  A    between atoms: C7_7  and  S10_10 
ROOT
HETATM    1  C1  UNL     1     -33.358   6.905   4.280  1.00 20.00     0.186 C 
HETATM    2  O9  UNL     1     -32.979   7.304   5.374  1.00 20.00    -0.286 OA
ENDROOT
BRANCH   1   3
HETATM    3  C5  UNL     1     -34.728   6.305   4.019  1.00 20.00     0.094 C 
BRANCH   3   4
HETATM    4  C8  UNL     1     -34.994   5.029   4.835  1.00 20.00    -0.015 C 
HETATM    5  C3  UNL     1     -33.955   3.960   4.491  1.00 20.00     0.010 C 
HETATM    6  C4  UNL     1     -34.965   5.312   6.339  1.00 20.00     0.010 C 
ENDBRANCH   3   4
ENDBRANCH   1   3
BRANCH   1   7
HETATM    7  S10 UNL     1     -32.362   7.031   2.825  1.00 20.00    -0.093 SA
BRANCH   7   8
HETATM    8  C7  UNL     1     -33.398   8.104   1.808  1.00 20.00     0.082 C 
BRANCH   8   9
HETATM    9  C6  UNL     1     -32.578   8.734   0.688  1.00 20.00     0.006 C 
HETATM   10  C2  UNL     1     -33.440   9.638  -0.181  1.00 20.00     0.006 C 
ENDBRANCH   8   9
ENDBRANCH   7   8
ENDBRANCH   1   7
TORSDOF 5
