REMARK  4 active torsions:
REMARK  status: ('A' for Active; 'I' for Inactive)
REMARK    1  A    between atoms: C3_3  and  C5_5 
REMARK    2  A    between atoms: C5_5  and  N8_8 
REMARK    3  A    between atoms: C6_6  and  C7_7 
REMARK    4  A    between atoms: C6_6  and  N8_8 
ROOT
HETATM    1  N8  UNL     1     -32.303   7.590   3.161  1.00 20.00     0.089 N 
HETATM    2  H23 UNL     1     -31.300   7.755   3.023  1.00 20.00     0.316 HD
ENDROOT
BRANCH   1   3
HETATM    3  C5  UNL     1     -32.519   6.293   3.741  1.00 20.00     0.274 C 
BRANCH   3   4
HETATM    4  C3  UNL     1     -33.858   6.207   4.386  1.00 20.00     0.018 A 
HETATM    5  C1  UNL     1     -34.488   4.864   4.647  1.00 20.00     0.011 A 
HETATM    6  C2  UNL     1     -33.987   5.695   5.798  1.00 20.00    -0.013 A 
HETATM    7  C4  UNL     1     -34.951   6.331   6.738  1.00 20.00     0.010 C 
ENDBRANCH   3   4
ENDBRANCH   1   3
BRANCH   1   8
HETATM    8  C6  UNL     1     -32.974   7.722   1.867  1.00 20.00     0.340 C 
BRANCH   8   9
HETATM    9  C7  UNL     1     -32.354   8.841   1.058  1.00 20.00     0.381 C 
HETATM   10  F9  UNL     1     -32.873  10.034   1.443  1.00 20.00    -0.213 F 
HETATM   11  F10 UNL     1     -32.685   8.681  -0.249  1.00 20.00    -0.213 F 
ENDBRANCH   8   9
ENDBRANCH   1   8
TORSDOF 4
