REMARK  3 active torsions:
REMARK  status: ('A' for Active; 'I' for Inactive)
REMARK       I    between atoms: C1_1  and  N10_10 
REMARK    1  A    between atoms: C7_7  and  C8_8 
REMARK    2  A    between atoms: C7_7  and  N10_10 
REMARK    3  A    between atoms: C8_8  and  C9_9 
ROOT
HETATM    1  C7  UNL     1     -32.380   7.280   3.427  1.00 20.00     0.127 C 
ENDROOT
BRANCH   1   2
HETATM    2  C8  UNL     1     -33.652   6.511   3.844  1.00 20.00     0.007 C 
HETATM    3  C3  UNL     1     -33.521   5.039   3.410  1.00 20.00     0.012 C 
BRANCH   2   4
HETATM    4  C9  UNL     1     -34.009   6.679   5.369  1.00 20.00    -0.047 C 
HETATM    5  C4  UNL     1     -35.314   5.921   5.700  1.00 20.00     0.015 C 
HETATM    6  C5  UNL     1     -34.195   8.155   5.768  1.00 20.00     0.015 C 
HETATM    7  C6  UNL     1     -32.899   6.075   6.258  1.00 20.00     0.015 C 
ENDBRANCH   2   4
ENDBRANCH   1   2
BRANCH   1   8
HETATM    8  N10 UNL     1     -32.167   7.257   2.003  1.00 20.00    -0.361 N 
HETATM    9  C1  UNL     1     -32.676   8.215   1.142  1.00 20.00     0.213 C 
HETATM   10  C2  UNL     1     -32.330   7.994  -0.293  1.00 20.00     0.117 C 
HETATM   11  O11 UNL     1     -33.357   9.184   1.457  1.00 20.00    -0.274 OA
HETATM   12  H30 UNL     1     -31.614   6.499   1.609  1.00 20.00     0.162 HD
ENDBRANCH   1   8
TORSDOF 3
