REMARK  1 active torsions:
REMARK  status: ('A' for Active; 'I' for Inactive)
REMARK    1  A    between atoms: C4_4  and  C8_8 
ROOT
HETATM    1  C1  UNL     1     -32.672   6.639   2.635  1.00 20.00     0.137 C 
HETATM    2  C2  UNL     1     -33.013   7.082   4.037  1.00 20.00     0.095 C 
HETATM    3  C3  UNL     1     -33.001   5.204   2.321  1.00 20.00     0.152 C 
HETATM    4  C4  UNL     1     -34.161   6.198   4.505  1.00 20.00     0.062 C 
HETATM    5  O9  UNL     1     -32.119   7.379   1.826  1.00 20.00    -0.297 OA
HETATM    6  S10 UNL     1     -33.782   4.561   3.820  1.00 20.00    -0.156 SA
ENDROOT
BRANCH   4   7
HETATM    7  C8  UNL     1     -34.286   6.151   6.018  1.00 20.00    -0.038 C 
HETATM    8  C5  UNL     1     -35.428   5.201   6.408  1.00 20.00     0.015 C 
HETATM    9  C6  UNL     1     -34.586   7.559   6.551  1.00 20.00     0.015 C 
HETATM   10  C7  UNL     1     -32.969   5.644   6.624  1.00 20.00     0.015 C 
ENDBRANCH   4   7
TORSDOF 1
