REMARK  1 active torsions:
REMARK  status: ('A' for Active; 'I' for Inactive)
REMARK    1  A    between atoms: C2_2  and  C6_6 
ROOT
HETATM    1  C1  UNL     1     -34.699   5.182   4.554  1.00 20.00     0.011 C 
HETATM    2  C2  UNL     1     -33.742   6.044   4.175  1.00 20.00     0.026 C 
HETATM    3  C3  UNL     1     -35.291   5.198   5.933  1.00 20.00     0.195 C 
HETATM    4  C4  UNL     1     -33.250   7.098   5.132  1.00 20.00     0.069 C 
HETATM    5  C5  UNL     1     -34.196   7.262   6.319  1.00 20.00     0.172 C 
HETATM    6  O7  UNL     1     -34.522   5.980   6.854  1.00 20.00    -0.387 OA
ENDROOT
BRANCH   2   7
HETATM    7  C6  UNL     1     -33.115   6.014   2.816  1.00 20.00     0.413 C 
HETATM    8  F8  UNL     1     -32.183   6.981   2.692  1.00 20.00    -0.166 F 
HETATM    9  F9  UNL     1     -32.515   4.829   2.585  1.00 20.00    -0.166 F 
HETATM   10  F10 UNL     1     -34.038   6.204   1.850  1.00 20.00    -0.166 F 
ENDBRANCH   2   7
TORSDOF 1
