REMARK  1 active torsions:
REMARK  status: ('A' for Active; 'I' for Inactive)
REMARK    1  A    between atoms: C2_2  and  C4_4 
ROOT
HETATM    1  C1  UNL     1     -35.131   5.729   3.938  1.00 20.00     0.092 A 
HETATM    2  C2  UNL     1     -34.157   4.863   4.707  1.00 20.00     0.092 A 
HETATM    3  C3  UNL     1     -33.698   6.112   4.044  1.00 20.00     0.250 A 
HETATM    4  F5  UNL     1     -32.879   6.057   2.939  1.00 20.00    -0.206 F 
HETATM    5  F6  UNL     1     -33.324   7.214   4.779  1.00 20.00    -0.206 F 
ENDROOT
BRANCH   2   6
HETATM    6  C4  UNL     1     -34.236   4.784   6.191  1.00 20.00     0.232 C 
HETATM    7  F7  UNL     1     -34.482   6.025   6.705  1.00 20.00    -0.255 F 
ENDBRANCH   2   6
TORSDOF 1
