REMARK  0 active torsions:
REMARK  status: ('A' for Active; 'I' for Inactive)
ROOT
HETATM    1  C1  UNL     1     -33.815   7.478   6.305  1.00 20.00     0.102 C 
HETATM    2  C2  UNL     1     -33.095   7.444   3.970  1.00 20.00     0.050 A 
HETATM    3  C3  UNL     1     -33.063   5.373   2.727  1.00 20.00     0.069 A 
HETATM    4  C4  UNL     1     -33.561   6.763   5.094  1.00 20.00     0.087 A 
HETATM    5  C5  UNL     1     -33.528   4.691   3.851  1.00 20.00     0.158 A 
HETATM    6  C6  UNL     1     -33.777   5.386   5.035  1.00 20.00     0.175 A 
HETATM    7  C7  UNL     1     -32.846   6.750   2.786  1.00 20.00     0.038 A 
HETATM    8  N8  UNL     1     -34.022   8.059   7.288  1.00 20.00    -0.191 NA
HETATM    9  F9  UNL     1     -33.737   3.369   3.793  1.00 20.00    -0.203 F 
HETATM   10  F10 UNL     1     -34.226   4.717   6.107  1.00 20.00    -0.201 F 
HETATM   11 CL11 UNL     1     -32.270   7.591   1.399  1.00 20.00    -0.084 Cl
ENDROOT
TORSDOF 0
