REMARK  1 active torsions:
REMARK  status: ('A' for Active; 'I' for Inactive)
REMARK    1  A    between atoms: C2_2  and  C6_6 
ROOT
HETATM    1  C1  UNL     1     -33.157   6.124   3.404  1.00 20.00     0.139 C 
HETATM    2  C4  UNL     1     -32.937   4.626   3.155  1.00 20.00     0.081 C 
HETATM    3  C5  UNL     1     -33.919   4.344   4.313  1.00 20.00     0.028 C 
HETATM    4  C6  UNL     1     -34.276   5.859   4.447  1.00 20.00     0.035 C 
HETATM    5  C8  UNL     1     -35.671   6.241   3.973  1.00 20.00     0.027 C 
HETATM    6  O9  UNL     1     -32.650   7.126   2.943  1.00 20.00    -0.297 OA
ENDROOT
BRANCH   4   7
HETATM    7  C2  UNL     1     -33.918   6.453   5.758  1.00 20.00    -0.014 C 
HETATM    8  C3  UNL     1     -33.691   7.761   5.949  1.00 20.00    -0.034 C 
HETATM    9  C7  UNL     1     -33.332   8.358   7.268  1.00 20.00     0.036 C 
ENDBRANCH   4   7
TORSDOF 1
