REMARK  0 active torsions:
REMARK  status: ('A' for Active; 'I' for Inactive)
ROOT
HETATM    1  C1  UNL     1     -33.115   6.560   3.811  1.00 20.00     0.221 C 
HETATM    2  C2  UNL     1     -35.533   5.960   4.591  1.00 20.00     0.020 C 
HETATM    3  C3  UNL     1     -34.041   4.709   5.402  1.00 20.00     0.020 C 
HETATM    4  C4  UNL     1     -33.848   7.189   6.127  1.00 20.00     0.127 C 
HETATM    5  C5  UNL     1     -34.177   5.430   4.022  1.00 20.00     0.078 C 
HETATM    6  C6  UNL     1     -34.765   5.977   5.947  1.00 20.00     0.005 C 
HETATM    7  N7  UNL     1     -33.033   7.383   4.928  1.00 20.00    -0.360 N 
HETATM    8  O8  UNL     1     -32.429   6.725   2.802  1.00 20.00    -0.273 OA
HETATM    9  H17 UNL     1     -32.376   8.156   4.910  1.00 20.00     0.162 HD
ENDROOT
TORSDOF 0
