REMARK  2 active torsions:
REMARK  status: ('A' for Active; 'I' for Inactive)
REMARK    1  A    between atoms: C1_1  and  C3_3 
REMARK    2  A    between atoms: C2_2  and  C4_4 
ROOT
HETATM    1  C4  UNL     1     -32.559   6.569   3.484  1.00 20.00     0.097 C 
HETATM    2  C5  UNL     1     -33.551   7.297   4.432  1.00 20.00     0.074 C 
HETATM    3  C6  UNL     1     -33.668   5.507   3.261  1.00 20.00     0.315 C 
HETATM    4  C7  UNL     1     -34.244   5.923   4.643  1.00 20.00     0.312 C 
HETATM    5  C8  UNL     1     -32.954   7.946   5.665  1.00 20.00     0.017 C 
HETATM    6  F10 UNL     1     -34.500   5.718   2.214  1.00 20.00    -0.199 F 
HETATM    7  F11 UNL     1     -33.243   4.227   3.170  1.00 20.00    -0.199 F 
HETATM    8  F12 UNL     1     -35.592   5.955   4.729  1.00 20.00    -0.199 F 
HETATM    9  F13 UNL     1     -33.800   5.191   5.691  1.00 20.00    -0.199 F 
ENDROOT
BRANCH   1  10
HETATM   10  C2  UNL     1     -32.149   7.325   2.287  1.00 20.00    -0.012 C 
HETATM   11  C1  UNL     1     -33.014   7.940   1.472  1.00 20.00     0.038 C 
BRANCH  11  12
HETATM   12  C3  UNL     1     -32.501   8.671   0.298  1.00 20.00     0.258 C 
HETATM   13  O9  UNL     1     -33.248   9.251  -0.481  1.00 20.00    -0.302 OA
ENDBRANCH  11  12
ENDBRANCH   1  10
TORSDOF 2
