REMARK  5 active torsions:
REMARK  status: ('A' for Active; 'I' for Inactive)
REMARK    1  A    between atoms: C3_3  and  C7_7 
REMARK    2  A    between atoms: C4_4  and  C8_8 
REMARK    3  A    between atoms: C7_7  and  C9_9 
REMARK    4  A    between atoms: C8_8  and  C10_10 
REMARK    5  A    between atoms: C9_9  and  C10_10 
ROOT
HETATM    1  C9  UNL     1     -32.827   6.825   4.144  1.00 20.00     0.004 C 
ENDROOT
BRANCH   1   2
HETATM    2  C7  UNL     1     -31.603   7.080   3.262  1.00 20.00     0.026 C 
BRANCH   2   3
HETATM    3  C3  UNL     1     -32.008   7.538   1.890  1.00 20.00    -0.031 C 
HETATM    4  C1  UNL     1     -32.163   8.826   1.550  1.00 20.00    -0.035 C 
HETATM    5  C5  UNL     1     -32.571   9.282   0.188  1.00 20.00     0.035 C 
ENDBRANCH   2   3
ENDBRANCH   1   2
BRANCH   1   6
HETATM    6  C10 UNL     1     -33.714   5.724   3.560  1.00 20.00     0.004 C 
BRANCH   6   7
HETATM    7  C8  UNL     1     -34.917   5.443   4.463  1.00 20.00     0.026 C 
BRANCH   7   8
HETATM    8  C4  UNL     1     -34.481   5.030   5.839  1.00 20.00    -0.031 C 
HETATM    9  C2  UNL     1     -34.313   5.887   6.856  1.00 20.00    -0.035 C 
HETATM   10  C6  UNL     1     -34.538   7.359   6.749  1.00 20.00     0.035 C 
ENDBRANCH   7   8
ENDBRANCH   6   7
ENDBRANCH   1   6
TORSDOF 5
