REMARK  1 active torsions:
REMARK  status: ('A' for Active; 'I' for Inactive)
REMARK    1  A    between atoms: C7_7  and  C8_8 
ROOT
HETATM    1  C4  UNL     1     -33.139   7.573   5.487  1.00 20.00     0.038 C 
HETATM    2  C5  UNL     1     -34.163   7.355   6.595  1.00 20.00     0.270 C 
HETATM    3  C6  UNL     1     -34.181   5.053   5.725  1.00 20.00     0.307 C 
HETATM    4  C8  UNL     1     -33.623   6.976   4.157  1.00 20.00     0.027 C 
HETATM    5  C9  UNL     1     -34.454   5.705   4.374  1.00 20.00     0.202 C 
HETATM    6  N10 UNL     1     -34.450   5.945   6.855  1.00 20.00     0.086 N 
HETATM    7  F11 UNL     1     -35.776   6.047   4.331  1.00 20.00    -0.247 F 
HETATM    8  H27 UNL     1     -33.882   5.635   7.661  1.00 20.00     0.315 HD
ENDROOT
BRANCH   4   9
HETATM    9  C7  UNL     1     -32.418   6.682   3.262  1.00 20.00    -0.008 C 
HETATM   10  C2  UNL     1     -31.509   7.891   2.927  1.00 20.00     0.005 C 
HETATM   11  C1  UNL     1     -32.302   8.057   1.616  1.00 20.00     0.001 C 
HETATM   12  C3  UNL     1     -32.708   6.576   1.744  1.00 20.00     0.005 C 
ENDBRANCH   4   9
TORSDOF 1
