REMARK  0 active torsions:
REMARK  status: ('A' for Active; 'I' for Inactive)
ROOT
HETATM    1  C1  UNL     1     -34.669   5.362   5.893  1.00 20.00     0.088 C 
HETATM    2  C2  UNL     1     -32.937   6.263   2.665  1.00 20.00     0.001 C 
HETATM    3  C3  UNL     1     -33.583   5.085   3.443  1.00 20.00     0.010 C 
HETATM    4  C4  UNL     1     -33.097   7.521   3.558  1.00 20.00     0.007 C 
HETATM    5  C5  UNL     1     -34.114   7.509   6.058  1.00 20.00     0.153 C 
HETATM    6  C6  UNL     1     -34.370   5.804   4.503  1.00 20.00     0.031 C 
HETATM    7  C7  UNL     1     -33.388   6.891   4.893  1.00 20.00     0.014 C 
HETATM    8  N8  UNL     1     -34.605   6.299   6.797  1.00 20.00    -0.305 NA
ENDROOT
TORSDOF 0
