REMARK  2 active torsions:
REMARK  status: ('A' for Active; 'I' for Inactive)
REMARK    1  A    between atoms: C4_4  and  C8_8 
REMARK    2  A    between atoms: C5_5  and  C9_9 
ROOT
HETATM    1  C1  UNL     1     -34.137   6.016   6.004  1.00 20.00     0.139 C 
HETATM    2  C6  UNL     1     -33.660   7.368   6.475  1.00 20.00     0.080 C 
HETATM    3  C7  UNL     1     -33.871   8.242   5.243  1.00 20.00     0.017 C 
HETATM    4  C8  UNL     1     -33.705   7.300   4.041  1.00 20.00     0.027 C 
HETATM    5  C9  UNL     1     -34.400   5.985   4.499  1.00 20.00     0.041 C 
HETATM    6  C10 UNL     1     -35.917   6.041   4.280  1.00 20.00     0.028 C 
HETATM    7  O11 UNL     1     -34.299   5.066   6.762  1.00 20.00    -0.297 OA
ENDROOT
BRANCH   5   8
HETATM    8  C5  UNL     1     -33.852   4.734   3.884  1.00 20.00    -0.019 C 
HETATM    9  C3  UNL     1     -33.938   4.440   2.583  1.00 20.00     0.008 C 
ENDBRANCH   5   8
BRANCH   4  10
HETATM   10  C4  UNL     1     -32.250   7.159   3.688  1.00 20.00    -0.031 C 
HETATM   11  C2  UNL     1     -31.727   7.518   2.511  1.00 20.00     0.007 C 
ENDBRANCH   4  10
TORSDOF 2
