REMARK  2 active torsions:
REMARK  status: ('A' for Active; 'I' for Inactive)
REMARK    1  A    between atoms: C1_1  and  C7_7 
REMARK    2  A    between atoms: C4_4  and  C7_7 
ROOT
HETATM    1  C2  UNL     1     -34.801   5.194   6.623  1.00 20.00     0.197 C 
HETATM    2  C3  UNL     1     -34.130   6.526   6.815  1.00 20.00     0.197 C 
HETATM    3  C4  UNL     1     -34.193   6.027   4.604  1.00 20.00     0.169 C 
HETATM    4  C5  UNL     1     -35.328   6.201   3.603  1.00 20.00     0.080 C 
HETATM    5  O9  UNL     1     -34.376   4.795   5.321  1.00 20.00    -0.353 OA
HETATM    6  O10 UNL     1     -34.219   7.130   5.525  1.00 20.00    -0.353 OA
ENDROOT
BRANCH   3   7
HETATM    7  C7  UNL     1     -32.840   5.987   3.905  1.00 20.00     0.105 C 
HETATM    8  C6  UNL     1     -32.768   4.831   2.914  1.00 20.00     0.023 C 
BRANCH   7   9
HETATM    9  C1  UNL     1     -32.590   7.322   3.231  1.00 20.00     0.240 C 
HETATM   10  O8  UNL     1     -32.374   7.468   2.032  1.00 20.00    -0.306 OA
ENDBRANCH   7   9
ENDBRANCH   3   7
TORSDOF 2
