REMARK  0 active torsions:
REMARK  status: ('A' for Active; 'I' for Inactive)
ROOT
HETATM    1  C1  UNL     1     -33.562   5.510   3.852  1.00 20.00     0.135 C 
HETATM    2  C2  UNL     1     -34.678   4.985   4.726  1.00 20.00     0.110 C 
HETATM    3  C3  UNL     1     -33.201   7.376   5.433  1.00 20.00     0.179 C 
HETATM    4  C4  UNL     1     -33.312   7.006   3.955  1.00 20.00     0.075 C 
HETATM    5  C5  UNL     1     -34.530   5.507   6.152  1.00 20.00     0.124 C 
HETATM    6  C6  UNL     1     -32.070   7.437   3.187  1.00 20.00     0.020 C 
HETATM    7  C7  UNL     1     -33.445   4.779   6.943  1.00 20.00     0.040 C 
HETATM    8  O8  UNL     1     -32.976   4.782   3.054  1.00 20.00    -0.297 OA
HETATM    9  O9  UNL     1     -34.341   6.927   6.167  1.00 20.00    -0.385 OA
ENDROOT
TORSDOF 0
