REMARK  0 active torsions:
REMARK  status: ('A' for Active; 'I' for Inactive)
ROOT
HETATM    1  C1  UNL     1     -32.361   7.204   2.282  1.00 20.00     0.064 C 
HETATM    2  C2  UNL     1     -34.478   5.028   4.578  1.00 20.00     0.012 C 
HETATM    3  C3  UNL     1     -34.299   5.633   5.760  1.00 20.00     0.090 C 
HETATM    4  C4  UNL     1     -33.835   5.503   3.308  1.00 20.00     0.049 C 
HETATM    5  C5  UNL     1     -33.465   6.865   5.933  1.00 20.00     0.071 C 
HETATM    6  C6  UNL     1     -33.130   7.553   4.607  1.00 20.00     0.026 C 
HETATM    7  C7  UNL     1     -32.713   6.530   3.543  1.00 20.00     0.096 C 
HETATM    8  N8  UNL     1     -32.084   7.735   1.289  1.00 20.00    -0.197 NA
HETATM    9  F9  UNL     1     -34.923   5.122   6.845  1.00 20.00    -0.211 F 
ENDROOT
TORSDOF 0
