REMARK  2 active torsions:
REMARK  status: ('A' for Active; 'I' for Inactive)
REMARK    1  A    between atoms: C2_2  and  C6_6 
REMARK    2  A    between atoms: C3_3  and  C6_6 
ROOT
HETATM    1  C1  UNL     1     -32.707   7.838   3.036  1.00 20.00    -0.110 C 
HETATM    2  C2  UNL     1     -33.401   7.459   3.939  1.00 20.00    -0.092 C 
HETATM    3  C4  UNL     1     -31.861   8.299   1.936  1.00 20.00     0.112 C 
ENDROOT
BRANCH   2   4
HETATM    4  C6  UNL     1     -34.256   6.994   5.047  1.00 20.00     0.162 C 
HETATM    5  C5  UNL     1     -33.810   7.627   6.360  1.00 20.00     0.035 C 
BRANCH   4   6
HETATM    6  C3  UNL     1     -34.254   5.454   5.086  1.00 20.00     0.188 C 
HETATM    7  O7  UNL     1     -34.455   4.959   6.234  1.00 20.00    -0.647 OA
HETATM    8  O8  UNL     1     -34.057   4.864   3.988  1.00 20.00    -0.647 OA
ENDBRANCH   4   6
ENDBRANCH   2   4
TORSDOF 2
