REMARK  0 active torsions:
REMARK  status: ('A' for Active; 'I' for Inactive)
ROOT
HETATM    1  C1  UNL     1     -33.145   6.836   6.735  1.00 20.00    -0.024 C 
HETATM    2  C2  UNL     1     -34.094   5.877   6.840  1.00 20.00    -0.024 C 
HETATM    3  C3  UNL     1     -32.439   7.330   3.118  1.00 20.00     0.272 C 
HETATM    4  C4  UNL     1     -33.655   5.406   2.862  1.00 20.00     0.272 C 
HETATM    5  C5  UNL     1     -33.856   7.527   5.597  1.00 20.00     0.031 C 
HETATM    6  C6  UNL     1     -34.660   6.166   5.456  1.00 20.00     0.031 C 
HETATM    7  C7  UNL     1     -33.559   7.328   4.137  1.00 20.00     0.108 C 
HETATM    8  C8  UNL     1     -33.685   5.779   4.342  1.00 20.00     0.108 C 
HETATM    9  O9  UNL     1     -31.502   8.099   2.972  1.00 20.00    -0.264 OA
HETATM   10  O10 UNL     1     -34.258   4.531   2.259  1.00 20.00    -0.264 OA
HETATM   11  O11 UNL     1     -32.706   6.251   2.266  1.00 20.00    -0.244 OA
ENDROOT
TORSDOF 0
