REMARK  3 active torsions:
REMARK  status: ('A' for Active; 'I' for Inactive)
REMARK    1  A    between atoms: C3_3  and  C4_4 
REMARK    2  A    between atoms: C4_4  and  C5_5 
REMARK    3  A    between atoms: C7_7  and  O10_10 
ROOT
HETATM    1  C1  UNL     1     -32.874   7.328   5.579  1.00 20.00     0.006 C 
HETATM    2  C2  UNL     1     -33.701   6.516   6.242  1.00 20.00    -0.023 C 
HETATM    3  C3  UNL     1     -33.027   7.164   4.158  1.00 20.00    -0.027 C 
HETATM    4  C6  UNL     1     -34.549   5.700   5.319  1.00 20.00     0.064 C 
HETATM    5  C7  UNL     1     -34.006   6.045   3.924  1.00 20.00     0.157 C 
ENDROOT
BRANCH   3   6
HETATM    6  C4  UNL     1     -32.414   7.892   3.220  1.00 20.00     0.051 C 
BRANCH   6   7
HETATM    7  C5  UNL     1     -32.699   7.573   1.808  1.00 20.00     0.259 C 
HETATM    8  O9  UNL     1     -32.182   8.187   0.883  1.00 20.00    -0.302 OA
ENDBRANCH   6   7
ENDBRANCH   3   6
BRANCH   5   9
HETATM    9  O10 UNL     1     -33.313   4.926   3.381  1.00 20.00    -0.386 OA
HETATM   10  C8  UNL     1     -34.202   4.033   2.725  1.00 20.00     0.202 C 
ENDBRANCH   5   9
TORSDOF 3
