REMARK  1 active torsions:
REMARK  status: ('A' for Active; 'I' for Inactive)
REMARK    1  A    between atoms: C1_1  and  C3_3 
ROOT
HETATM    1  C1  UNL     1     -34.190   7.114   4.463  1.00 20.00     0.181 A 
HETATM    2  C2  UNL     1     -32.798   6.978   3.917  1.00 20.00     0.247 A 
HETATM    3  O4  UNL     1     -33.747   5.907   3.828  1.00 20.00    -0.358 OA
HETATM    4 CL5  UNL     1     -32.348   7.827   2.464  1.00 20.00    -0.092 Cl
ENDROOT
BRANCH   1   5
HETATM    5  C3  UNL     1     -34.458   6.980   5.918  1.00 20.00     0.150 C 
HETATM    6 CL6  UNL     1     -34.536   5.264   6.410  1.00 20.00    -0.128 Cl
ENDBRANCH   1   5
TORSDOF 1
