REMARK  1 active torsions:
REMARK  status: ('A' for Active; 'I' for Inactive)
REMARK    1  A    between atoms: N3_3  and  P4_4 
ROOT
HETATM    1  C1  UNL     1     -32.802   5.552   2.508  1.00 20.00     0.117 C 
HETATM    2  C2  UNL     1     -32.310   7.799   3.161  1.00 20.00     0.117 C 
HETATM    3  N3  UNL     1     -32.806   6.501   3.626  1.00 20.00    -0.274 NA
ENDROOT
BRANCH   3   4
HETATM    4  P4  UNL     1     -34.274   6.565   4.510  1.00 20.00     0.158 P 
HETATM    5 CL5  UNL     1     -34.728   4.688   5.342  1.00 20.00    -0.059 Cl
HETATM    6 CL6  UNL     1     -34.016   7.614   6.313  1.00 20.00    -0.059 Cl
ENDBRANCH   3   4
TORSDOF 1
