REMARK  0 active torsions:
REMARK  status: ('A' for Active; 'I' for Inactive)
ROOT
HETATM    1  C1  UNL     1     -32.085   7.838   1.133  1.00 20.00     0.012 C 
HETATM    2  C2  UNL     1     -32.222   7.293   2.193  1.00 20.00    -0.113 C 
HETATM    3  C3  UNL     1     -33.970   5.718   5.766  1.00 20.00     0.127 C 
HETATM    4  C4  UNL     1     -33.568   4.730   4.694  1.00 20.00     0.079 C 
HETATM    5  C5  UNL     1     -33.111   6.955   5.898  1.00 20.00     0.079 C 
HETATM    6  C6  UNL     1     -33.357   5.438   3.362  1.00 20.00     0.024 C 
HETATM    7  C7  UNL     1     -32.909   7.617   4.542  1.00 20.00     0.024 C 
HETATM    8  C8  UNL     1     -32.390   6.623   3.494  1.00 20.00     0.065 C 
HETATM    9  O9  UNL     1     -34.881   5.478   6.556  1.00 20.00    -0.298 OA
ENDROOT
TORSDOF 0
