REMARK  1 active torsions:
REMARK  status: ('A' for Active; 'I' for Inactive)
REMARK    1  A    between atoms: C5_5  and  P6_6 
ROOT
HETATM    1  C1  UNL     1     -34.126   4.514   5.791  1.00 20.00     0.021 C 
HETATM    2  C2  UNL     1     -33.530   6.890   6.348  1.00 20.00     0.021 C 
HETATM    3  C3  UNL     1     -35.213   6.407   4.546  1.00 20.00     0.021 C 
HETATM    4  C5  UNL     1     -33.921   5.925   5.220  1.00 20.00    -0.015 C 
ENDROOT
BRANCH   4   5
HETATM    5  P6  UNL     1     -32.530   5.874   3.951  1.00 20.00    -0.013 P 
HETATM    6  C4  UNL     1     -33.282   4.674   2.794  1.00 20.00     0.062 C 
HETATM    7 CL7  UNL     1     -32.929   7.674   2.961  1.00 20.00    -0.096 Cl
ENDBRANCH   4   5
TORSDOF 1
