REMARK  1 active torsions:
REMARK  status: ('A' for Active; 'I' for Inactive)
REMARK    1  A    between atoms: C4_4  and  S6_6 
ROOT
HETATM    1  C1  UNL     1     -35.392   6.139   4.314  1.00 20.00     0.030 C 
HETATM    2  C2  UNL     1     -34.265   4.689   6.028  1.00 20.00     0.030 C 
HETATM    3  C3  UNL     1     -33.893   7.175   6.047  1.00 20.00     0.030 C 
HETATM    4  C4  UNL     1     -34.133   5.947   5.165  1.00 20.00     0.042 C 
ENDROOT
BRANCH   4   5
HETATM    5  S6  UNL     1     -32.692   5.722   4.027  1.00 20.00     0.120 S 
HETATM    6  O5  UNL     1     -33.155   4.793   2.961  1.00 20.00    -0.240 OA
HETATM    7 CL7  UNL     1     -32.778   7.465   3.044  1.00 20.00    -0.010 Cl
ENDBRANCH   4   5
TORSDOF 1
