REMARK  1 active torsions:
REMARK  status: ('A' for Active; 'I' for Inactive)
REMARK    1  A    between atoms: C5_5  and  C10_10 
ROOT
HETATM    1  C1  UNL     1     -33.411   7.611   5.357  1.00 20.00     0.027 A 
HETATM    2  C2  UNL     1     -34.040   5.782   3.929  1.00 20.00     0.027 A 
HETATM    3  C3  UNL     1     -34.431   7.225   6.211  1.00 20.00     0.116 A 
HETATM    4  C4  UNL     1     -35.032   5.477   4.847  1.00 20.00     0.116 A 
HETATM    5  C5  UNL     1     -33.218   6.871   4.196  1.00 20.00    -0.051 A 
HETATM    6  N11 UNL     1     -35.249   6.173   5.985  1.00 20.00    -0.273 NA
ENDROOT
BRANCH   5   7
HETATM    7  C10 UNL     1     -32.051   7.272   3.168  1.00 20.00     0.026 C 
HETATM    8  C8  UNL     1     -32.310   7.106   1.637  1.00 20.00     0.043 C 
HETATM    9  C6  UNL     1     -32.425   8.609   1.622  1.00 20.00    -0.088 C 
HETATM   10  C7  UNL     1     -32.946   9.472   0.749  1.00 20.00     0.014 C 
HETATM   11  C9  UNL     1     -31.732   8.785   2.949  1.00 20.00     0.043 C 
ENDBRANCH   5   7
TORSDOF 1
