REMARK  0 active torsions:
REMARK  status: ('A' for Active; 'I' for Inactive)
ROOT
HETATM    1  C1  UNL     1     -32.546   6.523   2.531  1.00 20.00     0.099 A 
HETATM    2  C2  UNL     1     -33.761   4.693   3.557  1.00 20.00     0.063 A 
HETATM    3  C3  UNL     1     -34.372   6.670   6.769  1.00 20.00     0.167 A 
HETATM    4  C4  UNL     1     -33.434   6.792   4.777  1.00 20.00     0.124 A 
HETATM    5  C5  UNL     1     -32.726   7.311   3.671  1.00 20.00     0.204 A 
HETATM    6  C6  UNL     1     -33.057   5.231   2.476  1.00 20.00     0.121 A 
HETATM    7  C7  UNL     1     -33.939   5.491   4.699  1.00 20.00     0.042 A 
HETATM    8  N8  UNL     1     -33.690   7.454   5.968  1.00 20.00    -0.249 NA
HETATM    9  O9  UNL     1     -32.294   8.502   3.809  1.00 20.00    -0.286 OA
HETATM   10  F10 UNL     1     -32.873   4.491   1.374  1.00 20.00    -0.206 F 
HETATM   11  S11 UNL     1     -34.752   5.113   6.172  1.00 20.00    -0.080 SA
ENDROOT
TORSDOF 0
