REMARK  1 active torsions:
REMARK  status: ('A' for Active; 'I' for Inactive)
REMARK    1  A    between atoms: C1_1  and  C7_7 
ROOT
HETATM    1  C2  UNL     1     -32.632   5.036   2.571  1.00 20.00     0.007 C 
HETATM    2  C3  UNL     1     -33.759   5.104   3.602  1.00 20.00     0.020 C 
HETATM    3  C4  UNL     1     -33.017   7.344   4.485  1.00 20.00     0.026 C 
HETATM    4  C5  UNL     1     -31.749   6.245   2.492  1.00 20.00    -0.002 A 
HETATM    5  C6  UNL     1     -31.923   7.393   3.461  1.00 20.00    -0.000 A 
HETATM    6  C7  UNL     1     -33.390   5.905   4.853  1.00 20.00     0.045 C 
HETATM    7  C8  UNL     1     -32.173   7.608   1.970  1.00 20.00    -0.040 A 
HETATM    8  C9  UNL     1     -32.330   5.217   5.709  1.00 20.00     0.027 C 
HETATM    9  C10 UNL     1     -31.128   8.403   1.219  1.00 20.00     0.015 C 
HETATM   10  C11 UNL     1     -33.561   7.822   1.426  1.00 20.00     0.015 C 
ENDROOT
BRANCH   6  11
HETATM   11  C1  UNL     1     -34.664   5.983   5.689  1.00 20.00     0.181 C 
HETATM   12  O12 UNL     1     -34.557   6.615   6.776  1.00 20.00    -0.647 OA
HETATM   13  O13 UNL     1     -35.666   5.404   5.183  1.00 20.00    -0.647 OA
ENDBRANCH   6  11
TORSDOF 1
