REMARK  0 active torsions:
REMARK  status: ('A' for Active; 'I' for Inactive)
ROOT
HETATM    1  C1  UNL     1     -34.097   6.374   6.167  1.00 20.00     0.200 C 
HETATM    2  C2  UNL     1     -34.658   5.826   5.094  1.00 20.00     0.113 C 
HETATM    3  F3  UNL     1     -34.481   7.581   6.622  1.00 20.00    -0.219 F 
HETATM    4 CL4  UNL     1     -34.197   4.295   4.483  1.00 20.00    -0.095 Cl
ENDROOT
TORSDOF 0
