REMARK  1 active torsions:
REMARK  status: ('A' for Active; 'I' for Inactive)
REMARK    1  A    between atoms: C1_1  and  C3_3 
ROOT
HETATM    1  C1  UNL     1     -33.741   7.170   4.850  1.00 20.00     0.064 C 
HETATM    2  C2  UNL     1     -32.945   6.627   3.919  1.00 20.00     0.184 C 
HETATM    3  F4  UNL     1     -31.935   7.351   3.390  1.00 20.00    -0.193 F 
HETATM    4 CL5  UNL     1     -33.181   5.009   3.376  1.00 20.00    -0.052 Cl
ENDROOT
BRANCH   1   5
HETATM    5  C3  UNL     1     -34.883   6.447   5.491  1.00 20.00     0.205 C 
HETATM    6 CL6  UNL     1     -36.066   5.972   4.251  1.00 20.00    -0.104 Cl
HETATM    7 CL7  UNL     1     -34.280   5.005   6.341  1.00 20.00    -0.104 Cl
ENDBRANCH   1   5
TORSDOF 1
