REMARK  2 active torsions:
REMARK  status: ('A' for Active; 'I' for Inactive)
REMARK    1  A    between atoms: C5_5  and  S7_7 
REMARK    2  A    between atoms: C6_6  and  S8_8 
ROOT
HETATM    1  C1  UNL     1     -34.187   6.382   6.160  1.00 20.00     0.001 A 
HETATM    2  C2  UNL     1     -34.517   5.037   5.990  1.00 20.00     0.001 A 
HETATM    3  C3  UNL     1     -33.599   7.093   5.114  1.00 20.00     0.019 A 
HETATM    4  C4  UNL     1     -34.259   4.404   4.774  1.00 20.00     0.019 A 
HETATM    5  C5  UNL     1     -33.341   6.460   3.898  1.00 20.00     0.014 A 
HETATM    6  C6  UNL     1     -33.671   5.115   3.728  1.00 20.00     0.014 A 
ENDROOT
BRANCH   5   7
HETATM    7  S7  UNL     1     -32.583   7.457   2.615  1.00 20.00    -0.142 SA
HETATM    8  H13 UNL     1     -32.508   8.594   3.319  1.00 20.00     0.107 HD
ENDBRANCH   5   7
BRANCH   6   9
HETATM    9  S8  UNL     1     -33.380   4.215   2.205  1.00 20.00    -0.142 SA
HETATM   10  H14 UNL     1     -33.873   3.039   2.618  1.00 20.00     0.107 HD
ENDBRANCH   6   9
TORSDOF 2
