REMARK  1 active torsions:
REMARK  status: ('A' for Active; 'I' for Inactive)
REMARK    1  A    between atoms: C1_1  and  C8_8 
ROOT
HETATM    1  C1  UNL     1     -33.246   6.998   2.658  1.00 20.00    -0.067 C 
HETATM    2  C2  UNL     1     -32.932   7.506   1.615  1.00 20.00    -0.105 C 
HETATM    3  C9  UNL     1     -32.551   8.124   0.347  1.00 20.00     0.112 C 
ENDROOT
BRANCH   1   4
HETATM    4  C8  UNL     1     -33.622   6.394   3.897  1.00 20.00     0.017 A 
HETATM    5  C6  UNL     1     -33.929   5.035   3.946  1.00 20.00     0.020 A 
HETATM    6  C4  UNL     1     -34.296   4.445   5.156  1.00 20.00     0.001 A 
HETATM    7  C3  UNL     1     -34.356   5.216   6.317  1.00 20.00     0.000 A 
HETATM    8  C5  UNL     1     -34.049   6.576   6.268  1.00 20.00     0.001 A 
HETATM    9  C7  UNL     1     -33.682   7.165   5.058  1.00 20.00     0.020 A 
ENDBRANCH   1   4
TORSDOF 1
