REMARK  0 active torsions:
REMARK  status: ('A' for Active; 'I' for Inactive)
ROOT
HETATM    1  C1  UNL     1     -33.662   5.046   2.585  1.00 20.00     0.035 A 
HETATM    2  C2  UNL     1     -34.142   4.780   3.889  1.00 20.00     0.035 A 
HETATM    3  C3  UNL     1     -33.268   6.364   2.584  1.00 20.00     0.049 A 
HETATM    4  C4  UNL     1     -34.007   5.954   4.593  1.00 20.00     0.049 A 
HETATM    5  C5  UNL     1     -32.691   7.240   1.555  1.00 20.00     0.076 C 
HETATM    6  C6  UNL     1     -34.317   6.338   5.977  1.00 20.00     0.076 C 
HETATM    7  O7  UNL     1     -33.475   6.924   3.804  1.00 20.00    -0.320 OA
ENDROOT
TORSDOF 0
