REMARK  1 active torsions:
REMARK  status: ('A' for Active; 'I' for Inactive)
REMARK    1  A    between atoms: C4_4  and  S7_7 
ROOT
HETATM    1  C1  UNL     1     -33.810   7.060   5.852  1.00 20.00     0.009 A 
HETATM    2  C2  UNL     1     -32.983   7.130   4.694  1.00 20.00     0.026 A 
HETATM    3  C3  UNL     1     -34.834   6.150   5.702  1.00 20.00     0.051 A 
HETATM    4  C4  UNL     1     -33.406   6.271   3.704  1.00 20.00     0.040 A 
HETATM    5  S6  UNL     1     -34.795   5.385   4.171  1.00 20.00    -0.095 SA
ENDROOT
BRANCH   4   6
HETATM    6  S7  UNL     1     -32.656   6.060   2.132  1.00 20.00    -0.127 SA
HETATM    7  C5  UNL     1     -32.801   7.739   1.470  1.00 20.00     0.096 C 
ENDBRANCH   4   6
TORSDOF 1
