REMARK  3 active torsions:
REMARK  status: ('A' for Active; 'I' for Inactive)
REMARK    1  A    between atoms: C4_4  and  S10_10 
REMARK    2  A    between atoms: C5_5  and  C7_7 
REMARK    3  A    between atoms: C7_7  and  S10_10 
ROOT
HETATM    1  C1  UNL     1     -34.728   6.107   5.921  1.00 20.00     0.009 A 
HETATM    2  C2  UNL     1     -33.892   7.054   5.263  1.00 20.00     0.026 A 
HETATM    3  C3  UNL     1     -34.846   4.935   5.205  1.00 20.00     0.051 A 
HETATM    4  C4  UNL     1     -33.402   6.571   4.070  1.00 20.00     0.041 A 
HETATM    5  S9  UNL     1     -33.950   4.981   3.747  1.00 20.00    -0.095 SA
ENDROOT
BRANCH   4   6
HETATM    6  S10 UNL     1     -32.331   7.436   2.960  1.00 20.00    -0.115 SA
BRANCH   6   7
HETATM    7  C7  UNL     1     -33.366   7.463   1.478  1.00 20.00     0.157 C 
BRANCH   7   8
HETATM    8  C5  UNL     1     -32.678   8.165   0.331  1.00 20.00     0.132 C 
HETATM    9  C6  UNL     1     -32.927   9.636   0.259  1.00 20.00     0.091 C 
HETATM   10  O8  UNL     1     -31.960   7.633  -0.506  1.00 20.00    -0.298 OA
ENDBRANCH   7   8
ENDBRANCH   6   7
ENDBRANCH   4   6
TORSDOF 3
