REMARK  1 active torsions:
REMARK  status: ('A' for Active; 'I' for Inactive)
REMARK    1  A    between atoms: C6_6  and  C9_9 
ROOT
HETATM    1  C1  UNL     1     -35.201   5.342   5.963  1.00 20.00     0.001 A 
HETATM    2  C2  UNL     1     -34.546   6.502   6.376  1.00 20.00     0.001 A 
HETATM    3  C3  UNL     1     -34.947   4.810   4.699  1.00 20.00     0.007 A 
HETATM    4  C4  UNL     1     -33.637   7.130   5.525  1.00 20.00     0.007 A 
HETATM    5  C5  UNL     1     -34.038   5.438   3.848  1.00 20.00    -0.056 A 
HETATM    6  C6  UNL     1     -33.383   6.598   4.260  1.00 20.00    -0.053 A 
HETATM    7  C7  UNL     1     -33.781   4.849   2.499  1.00 20.00     0.049 C 
ENDROOT
BRANCH   6   8
HETATM    8  C9  UNL     1     -32.406   7.288   3.366  1.00 20.00     0.034 C 
HETATM    9  C8  UNL     1     -32.996   8.537   2.719  1.00 20.00     0.010 C 
ENDBRANCH   6   8
TORSDOF 1
