REMARK  3 active torsions:
REMARK  status: ('A' for Active; 'I' for Inactive)
REMARK    1  A    between atoms: C5_5  and  O9_9 
REMARK    2  A    between atoms: C6_6  and  O10_10 
REMARK    3  A    between atoms: C8_8  and  O10_10 
ROOT
HETATM    1  C1  UNL     1     -34.546   4.840   4.615  1.00 20.00     0.003 A 
HETATM    2  C2  UNL     1     -34.242   4.691   3.262  1.00 20.00     0.003 A 
HETATM    3  C3  UNL     1     -34.112   5.970   5.307  1.00 20.00     0.039 A 
HETATM    4  C4  UNL     1     -33.503   5.672   2.601  1.00 20.00     0.039 A 
HETATM    5  C5  UNL     1     -33.374   6.952   4.647  1.00 20.00     0.099 A 
HETATM    6  C6  UNL     1     -33.069   6.803   3.294  1.00 20.00     0.101 A 
ENDROOT
BRANCH   6   7
HETATM    7  O10 UNL     1     -32.348   7.754   2.637  1.00 20.00    -0.349 OA
BRANCH   7   8
HETATM    8  C8  UNL     1     -32.972   8.387   1.522  1.00 20.00     0.171 C 
HETATM    9  C7  UNL     1     -32.133   8.147   0.285  1.00 20.00     0.034 C 
ENDBRANCH   7   8
ENDBRANCH   6   7
BRANCH   5  10
HETATM   10  O9  UNL     1     -32.955   8.051   5.334  1.00 20.00    -0.358 OA
HETATM   11  H20 UNL     1     -33.247   8.000   6.258  1.00 20.00     0.217 HD
ENDBRANCH   5  10
TORSDOF 3
