REMARK  1 active torsions:
REMARK  status: ('A' for Active; 'I' for Inactive)
REMARK    1  A    between atoms: C4_4  and  C6_6 
ROOT
HETATM    1  C1  UNL     1     -34.286   4.922   3.935  1.00 20.00     0.027 A 
HETATM    2  C2  UNL     1     -34.143   6.326   3.832  1.00 20.00     0.034 A 
HETATM    3  C3  UNL     1     -33.396   4.380   3.037  1.00 20.00     0.142 A 
HETATM    4  C4  UNL     1     -33.175   6.543   2.879  1.00 20.00     0.052 A 
HETATM    5  O7  UNL     1     -32.715   5.362   2.389  1.00 20.00    -0.327 OA
ENDROOT
BRANCH   4   6
HETATM    6  C6  UNL     1     -32.573   7.760   2.316  1.00 20.00     0.060 C 
HETATM    7  C5  UNL     1     -32.736   7.863   0.794  1.00 20.00     0.012 C 
ENDBRANCH   4   6
TORSDOF 1
