REMARK  0 active torsions:
REMARK  status: ('A' for Active; 'I' for Inactive)
ROOT
HETATM    1  C1  UNL     1     -35.146   5.235   5.827  1.00 20.00     0.001 A 
HETATM    2  C2  UNL     1     -34.706   6.521   6.139  1.00 20.00     0.001 A 
HETATM    3  C3  UNL     1     -34.752   4.634   4.631  1.00 20.00     0.008 A 
HETATM    4  C4  UNL     1     -33.871   7.206   5.256  1.00 20.00     0.019 A 
HETATM    5  C5  UNL     1     -33.917   5.319   3.748  1.00 20.00    -0.045 A 
HETATM    6  C6  UNL     1     -33.477   6.605   4.061  1.00 20.00     0.012 A 
HETATM    7  C7  UNL     1     -33.528   4.624   2.483  1.00 20.00     0.049 C 
HETATM    8  I8  UNL     1     -32.224   7.687   2.782  1.00 20.00    -0.044 I 
ENDROOT
TORSDOF 0
