REMARK  0 active torsions:
REMARK  status: ('A' for Active; 'I' for Inactive)
ROOT
HETATM    1  C1  UNL     1     -33.426   6.795   5.386  1.00 20.00     0.021 C 
HETATM    2  C2  UNL     1     -34.936   4.965   6.226  1.00 20.00     0.021 C 
HETATM    3  C3  UNL     1     -34.541   5.818   5.024  1.00 20.00     0.045 C 
HETATM    4  I4  UNL     1     -33.892   4.542   3.409  1.00 20.00    -0.086 I 
ENDROOT
TORSDOF 0
