REMARK  0 active torsions:
REMARK  status: ('A' for Active; 'I' for Inactive)
ROOT
HETATM    1  C1  UNL     1     -34.649   4.604   5.691  1.00 20.00     0.001 A 
HETATM    2  C2  UNL     1     -34.628   5.889   6.240  1.00 20.00     0.003 A 
HETATM    3  C3  UNL     1     -34.192   4.367   4.388  1.00 20.00     0.014 A 
HETATM    4  C4  UNL     1     -34.150   6.982   5.510  1.00 20.00     0.038 A 
HETATM    5  C5  UNL     1     -33.175   5.626   2.331  1.00 20.00     0.046 A 
HETATM    6  C6  UNL     1     -33.707   5.452   3.635  1.00 20.00     0.000 A 
HETATM    7  C7  UNL     1     -33.702   6.715   4.218  1.00 20.00     0.086 A 
HETATM    8  C8  UNL     1     -32.884   6.965   2.206  1.00 20.00     0.050 A 
HETATM    9  C9  UNL     1     -32.320   7.771   1.115  1.00 20.00     0.077 C 
HETATM   10  O10 UNL     1     -33.201   7.634   3.345  1.00 20.00    -0.315 OA
ENDROOT
TORSDOF 0
