REMARK  3 active torsions:
REMARK  status: ('A' for Active; 'I' for Inactive)
REMARK    1  A    between atoms: C6_6  and  C9_9 
REMARK    2  A    between atoms: C8_8  and  C9_9 
REMARK    3  A    between atoms: C8_8  and  O10_10 
ROOT
HETATM    1  C1  UNL     1     -35.213   5.431   5.604  1.00 20.00     0.000 A 
HETATM    2  C2  UNL     1     -35.228   4.877   4.324  1.00 20.00     0.001 A 
HETATM    3  C3  UNL     1     -34.369   6.504   5.891  1.00 20.00     0.001 A 
HETATM    4  C4  UNL     1     -34.399   5.397   3.330  1.00 20.00     0.007 A 
HETATM    5  C5  UNL     1     -33.540   7.023   4.897  1.00 20.00     0.007 A 
HETATM    6  C6  UNL     1     -33.554   6.470   3.616  1.00 20.00    -0.052 A 
ENDROOT
BRANCH   6   7
HETATM    7  C9  UNL     1     -32.667   7.025   2.554  1.00 20.00     0.038 C 
HETATM    8  C7  UNL     1     -31.367   7.617   3.135  1.00 20.00     0.017 C 
BRANCH   7   9
HETATM    9  C8  UNL     1     -33.369   8.085   1.674  1.00 20.00     0.173 C 
BRANCH   9  10
HETATM   10  O10 UNL     1     -32.641   8.241   0.461  1.00 20.00    -0.400 OA
HETATM   11  H22 UNL     1     -33.111   8.910  -0.061  1.00 20.00     0.209 HD
ENDBRANCH   9  10
ENDBRANCH   7   9
ENDBRANCH   6   7
TORSDOF 3
