REMARK  0 active torsions:
REMARK  status: ('A' for Active; 'I' for Inactive)
ROOT
HETATM    1  C1  UNL     1     -34.842   5.712   5.422  1.00 20.00     0.002 A 
HETATM    2  C2  UNL     1     -34.797   4.331   5.237  1.00 20.00     0.007 A 
HETATM    3  C3  UNL     1     -34.284   6.563   4.468  1.00 20.00     0.018 A 
HETATM    4  C4  UNL     1     -33.634   4.649   3.143  1.00 20.00     0.025 A 
HETATM    5  C5  UNL     1     -34.192   3.799   4.097  1.00 20.00    -0.061 A 
HETATM    6  C6  UNL     1     -33.679   6.031   3.328  1.00 20.00     0.006 A 
HETATM    7  C7  UNL     1     -34.144   2.321   3.901  1.00 20.00     0.048 C 
HETATM    8  I8  UNL     1     -32.849   7.298   1.906  1.00 20.00    -0.045 I 
ENDROOT
TORSDOF 0
