REMARK  4 active torsions:
REMARK  status: ('A' for Active; 'I' for Inactive)
REMARK    1  A    between atoms: C6_6  and  C7_7 
REMARK    2  A    between atoms: C7_7  and  C8_8 
REMARK    3  A    between atoms: C8_8  and  C9_9 
REMARK    4  A    between atoms: C9_9  and  O10_10 
ROOT
HETATM    1  C1  UNL     1     -34.888   4.930   5.339  1.00 20.00     0.000 A 
HETATM    2  C2  UNL     1     -34.165   6.102   5.562  1.00 20.00     0.001 A 
HETATM    3  C3  UNL     1     -34.968   4.394   4.054  1.00 20.00     0.001 A 
HETATM    4  C4  UNL     1     -33.522   6.738   4.500  1.00 20.00     0.007 A 
HETATM    5  C5  UNL     1     -34.326   5.030   2.991  1.00 20.00     0.007 A 
HETATM    6  C6  UNL     1     -33.603   6.202   3.215  1.00 20.00    -0.058 A 
ENDROOT
BRANCH   6   7
HETATM    7  C7  UNL     1     -32.916   6.881   2.078  1.00 20.00     0.041 C 
BRANCH   7   8
HETATM    8  C8  UNL     1     -33.820   7.914   1.391  1.00 20.00     0.030 C 
BRANCH   8   9
HETATM    9  C9  UNL     1     -33.138   8.573   0.200  1.00 20.00     0.164 C 
BRANCH   9  10
HETATM   10  O10 UNL     1     -34.027   9.521  -0.371  1.00 20.00    -0.401 OA
HETATM   11  H22 UNL     1     -33.564   9.922  -1.125  1.00 20.00     0.209 HD
ENDBRANCH   9  10
ENDBRANCH   8   9
ENDBRANCH   7   8
ENDBRANCH   6   7
TORSDOF 4
