REMARK  2 active torsions:
REMARK  status: ('A' for Active; 'I' for Inactive)
REMARK    1  A    between atoms: C5_5  and  N8_8 
REMARK    2  A    between atoms: C6_6  and  S11_11 
ROOT
HETATM    1  C1  UNL     1     -33.886   5.040   2.813  1.00 20.00     0.037 A 
HETATM    2  C2  UNL     1     -33.050   7.162   3.609  1.00 20.00     0.037 A 
HETATM    3  C3  UNL     1     -33.395   5.324   1.539  1.00 20.00     0.021 A 
HETATM    4  C4  UNL     1     -32.559   7.446   2.334  1.00 20.00     0.021 A 
HETATM    5  C5  UNL     1     -33.714   5.959   3.848  1.00 20.00     0.102 A 
HETATM    6  C6  UNL     1     -32.732   6.527   1.299  1.00 20.00    -0.000 A 
ENDROOT
BRANCH   5   7
HETATM    7  N8  UNL     1     -34.213   5.669   5.146  1.00 20.00    -0.116 N 
HETATM    8  O9  UNL     1     -34.806   4.581   5.340  1.00 20.00    -0.532 OA
HETATM    9  O10 UNL     1     -34.047   6.510   6.062  1.00 20.00    -0.532 OA
ENDBRANCH   5   7
BRANCH   6  10
HETATM   10  S11 UNL     1     -32.105   6.889  -0.329  1.00 20.00    -0.134 SA
HETATM   11  C7  UNL     1     -32.239   8.691  -0.310  1.00 20.00     0.095 C 
ENDBRANCH   6  10
TORSDOF 2
