REMARK  0 active torsions:
REMARK  status: ('A' for Active; 'I' for Inactive)
ROOT
HETATM    1  C1  UNL     1     -32.969   5.535   2.437  1.00 20.00     0.008 A 
HETATM    2  C2  UNL     1     -33.886   6.557   4.425  1.00 20.00     0.008 A 
HETATM    3  C3  UNL     1     -33.482   4.300   2.836  1.00 20.00     0.019 A 
HETATM    4  C4  UNL     1     -34.399   5.323   4.824  1.00 20.00     0.019 A 
HETATM    5  C5  UNL     1     -33.171   6.663   3.232  1.00 20.00    -0.062 A 
HETATM    6  C6  UNL     1     -34.197   4.194   4.029  1.00 20.00     0.006 A 
HETATM    7  C7  UNL     1     -32.620   7.982   2.808  1.00 20.00     0.048 C 
HETATM    8  I8  UNL     1     -34.959   2.355   4.622  1.00 20.00    -0.045 I 
ENDROOT
TORSDOF 0
