REMARK  3 active torsions:
REMARK  status: ('A' for Active; 'I' for Inactive)
REMARK    1  A    between atoms: C2_2  and  C7_7 
REMARK    2  A    between atoms: C3_3  and  C8_8 
REMARK    3  A    between atoms: C7_7  and  C8_8 
ROOT
HETATM    1  C3  UNL     1     -33.305   5.720   3.161  1.00 20.00    -0.024 C 
HETATM    2  C4  UNL     1     -33.919   5.638   4.357  1.00 20.00    -0.091 C 
HETATM    3  C5  UNL     1     -34.738   4.426   4.711  1.00 20.00     0.042 C 
HETATM    4  C6  UNL     1     -33.859   6.682   5.436  1.00 20.00     0.042 C 
ENDROOT
BRANCH   1   5
HETATM    5  C8  UNL     1     -32.471   6.851   2.623  1.00 20.00     0.031 C 
BRANCH   5   6
HETATM    6  C7  UNL     1     -33.058   7.454   1.342  1.00 20.00     0.030 C 
BRANCH   6   7
HETATM    7  C2  UNL     1     -32.245   8.604   0.821  1.00 20.00    -0.037 C 
HETATM    8  C1  UNL     1     -32.718   9.846   0.668  1.00 20.00     0.007 C 
ENDBRANCH   6   7
ENDBRANCH   5   6
ENDBRANCH   1   5
TORSDOF 3
