REMARK  4 active torsions:
REMARK  status: ('A' for Active; 'I' for Inactive)
REMARK    1  A    between atoms: C6_6  and  C8_8 
REMARK    2  A    between atoms: C8_8  and  C10_10 
REMARK    3  A    between atoms: C9_9  and  C11_11 
REMARK    4  A    between atoms: C10_10  and  C11_11 
ROOT
HETATM    1  C1  UNL     1     -34.815   5.521   6.052  1.00 20.00     0.000 A 
HETATM    2  C2  UNL     1     -34.064   6.697   6.071  1.00 20.00     0.001 A 
HETATM    3  C3  UNL     1     -34.751   4.670   4.949  1.00 20.00     0.001 A 
HETATM    4  C4  UNL     1     -33.250   7.021   4.986  1.00 20.00     0.007 A 
HETATM    5  C5  UNL     1     -33.937   4.994   3.864  1.00 20.00     0.007 A 
HETATM    6  C6  UNL     1     -33.186   6.170   3.883  1.00 20.00    -0.058 A 
ENDROOT
BRANCH   6   7
HETATM    7  C8  UNL     1     -32.312   6.518   2.717  1.00 20.00     0.038 C 
BRANCH   7   8
HETATM    8  C10 UNL     1     -33.025   7.351   1.647  1.00 20.00     0.005 C 
BRANCH   8   9
HETATM    9  C11 UNL     1     -32.151   7.637   0.422  1.00 20.00    -0.000 C 
BRANCH   9  10
HETATM   10  C9  UNL     1     -32.915   8.449  -0.625  1.00 20.00    -0.005 C 
HETATM   11  C7  UNL     1     -33.340   9.802  -0.079  1.00 20.00     0.005 C 
ENDBRANCH   9  10
ENDBRANCH   8   9
ENDBRANCH   7   8
ENDBRANCH   6   7
TORSDOF 4
