REMARK  1 active torsions:
REMARK  status: ('A' for Active; 'I' for Inactive)
REMARK    1  A    between atoms: C6_6  and  O8_8 
ROOT
HETATM    1  C1  UNL     1     -34.341   4.592   5.627  1.00 20.00     0.000 A 
HETATM    2  C2  UNL     1     -34.075   5.960   5.568  1.00 20.00     0.003 A 
HETATM    3  C3  UNL     1     -34.164   3.798   4.494  1.00 20.00     0.003 A 
HETATM    4  C4  UNL     1     -33.630   6.534   4.377  1.00 20.00     0.037 A 
HETATM    5  C5  UNL     1     -33.719   4.371   3.303  1.00 20.00     0.037 A 
HETATM    6  C6  UNL     1     -33.452   5.739   3.244  1.00 20.00     0.068 A 
ENDROOT
BRANCH   6   7
HETATM    7  O8  UNL     1     -33.020   6.298   2.081  1.00 20.00    -0.356 OA
HETATM    8  C7  UNL     1     -32.767   7.702   2.090  1.00 20.00     0.210 C 
ENDBRANCH   6   7
TORSDOF 1
