REMARK  0 active torsions:
REMARK  status: ('A' for Active; 'I' for Inactive)
ROOT
HETATM    1  C1  UNL     1     -34.566   4.950   6.180  1.00 20.00     0.000 A 
HETATM    2  C2  UNL     1     -34.388   6.333   6.217  1.00 20.00     0.000 A 
HETATM    3  C3  UNL     1     -34.451   4.263   4.971  1.00 20.00     0.000 A 
HETATM    4  C4  UNL     1     -34.096   7.029   5.044  1.00 20.00     0.000 A 
HETATM    5  C5  UNL     1     -34.160   4.960   3.799  1.00 20.00     0.000 A 
HETATM    6  C6  UNL     1     -33.982   6.343   3.835  1.00 20.00     0.000 A 
ENDROOT
TORSDOF 0
