REMARK  3 active torsions:
REMARK  status: ('A' for Active; 'I' for Inactive)
REMARK    1  A    between atoms: C6_6  and  O9_9 
REMARK    2  A    between atoms: C7_7  and  C8_8 
REMARK    3  A    between atoms: C7_7  and  O9_9 
ROOT
HETATM    1  C1  UNL     1     -35.019   5.517   6.030  1.00 20.00     0.000 A 
HETATM    2  C2  UNL     1     -34.186   6.628   5.903  1.00 20.00     0.003 A 
HETATM    3  C3  UNL     1     -35.249   4.689   4.931  1.00 20.00     0.003 A 
HETATM    4  C4  UNL     1     -33.582   6.911   4.677  1.00 20.00     0.037 A 
HETATM    5  C5  UNL     1     -34.646   4.972   3.706  1.00 20.00     0.037 A 
HETATM    6  C6  UNL     1     -33.812   6.083   3.579  1.00 20.00     0.068 A 
ENDROOT
BRANCH   6   7
HETATM    7  O9  UNL     1     -33.225   6.360   2.383  1.00 20.00    -0.350 OA
BRANCH   7   8
HETATM    8  C7  UNL     1     -32.961   7.731   2.091  1.00 20.00     0.190 C 
BRANCH   8   9
HETATM    9  C8  UNL     1     -33.093   7.971   0.598  1.00 20.00     0.141 C 
HETATM   10 CL10 UNL     1     -32.743   9.672   0.197  1.00 20.00    -0.128 Cl
ENDBRANCH   8   9
ENDBRANCH   7   8
ENDBRANCH   6   7
TORSDOF 3
