REMARK  0 active torsions:
REMARK  status: ('A' for Active; 'I' for Inactive)
ROOT
HETATM    1  C1  UNL     1     -33.488   9.048  -0.291  1.00 20.00     0.016 C 
HETATM    2  C2  UNL     1     -32.901   9.046   1.101  1.00 20.00     0.081 C 
HETATM    3 BR3  UNL     1     -32.590   7.217   1.685  1.00 20.00    -0.097 Br
ENDROOT
TORSDOF 0
