REMARK  5 active torsions:
REMARK  status: ('A' for Active; 'I' for Inactive)
REMARK    1  A    between atoms: C1_1  and  C5_5 
REMARK    2  A    between atoms: C2_2  and  C6_6 
REMARK    3  A    between atoms: C3_3  and  O9_9 
REMARK    4  A    between atoms: C6_6  and  C7_7 
REMARK    5  A    between atoms: C7_7  and  O9_9 
ROOT
HETATM    1  C6  UNL     1     -32.483   6.368   2.918  1.00 20.00     0.053 C 
ENDROOT
BRANCH   1   2
HETATM    2  C2  UNL     1     -33.067   6.972   4.163  1.00 20.00    -0.029 C 
HETATM    3  C1  UNL     1     -34.201   6.547   4.738  1.00 20.00    -0.031 C 
BRANCH   3   4
HETATM    4  C5  UNL     1     -35.030   5.414   4.210  1.00 20.00     0.022 C 
HETATM    5  C4  UNL     1     -34.594   4.084   4.805  1.00 20.00     0.009 C 
ENDBRANCH   3   4
ENDBRANCH   1   2
BRANCH   1   6
HETATM    6  C7  UNL     1     -33.001   7.057   1.661  1.00 20.00     0.181 C 
BRANCH   6   7
HETATM    7  O9  UNL     1     -32.621   8.427   1.676  1.00 20.00    -0.328 OA
BRANCH   7   8
HETATM    8  C3  UNL     1     -33.024   9.162   0.602  1.00 20.00     0.398 C 
HETATM    9  O8  UNL     1     -33.668   8.775  -0.360  1.00 20.00    -0.276 OA
ENDBRANCH   7   8
ENDBRANCH   6   7
ENDBRANCH   1   6
TORSDOF 5
