REMARK  0 active torsions:
REMARK  status: ('A' for Active; 'I' for Inactive)
ROOT
HETATM    1  C1  UNL     1     -33.982   6.235   6.316  1.00 20.00    -0.030 C 
HETATM    2  C2  UNL     1     -33.401   6.901   5.309  1.00 20.00    -0.030 C 
HETATM    3  C3  UNL     1     -34.709   4.937   6.128  1.00 20.00     0.026 C 
HETATM    4  C4  UNL     1     -33.446   6.435   3.884  1.00 20.00     0.026 C 
HETATM    5  C5  UNL     1     -34.447   4.292   4.764  1.00 20.00     0.004 C 
HETATM    6  C6  UNL     1     -34.477   5.330   3.645  1.00 20.00     0.004 C 
ENDROOT
TORSDOF 0
