REMARK  3 active torsions:
REMARK  status: ('A' for Active; 'I' for Inactive)
REMARK    1  A    between atoms: C3_3  and  S5_5 
REMARK    2  A    between atoms: C4_4  and  S6_6 
REMARK    3  A    between atoms: S5_5  and  S6_6 
ROOT
HETATM    1  S5  UNL     1     -32.139   7.019   1.733  1.00 20.00    -0.098 SA
ENDROOT
BRANCH   1   2
HETATM    2  C3  UNL     1     -32.975   8.567   1.313  1.00 20.00     0.081 C 
HETATM    3  C1  UNL     1     -33.053   8.739  -0.192  1.00 20.00     0.017 C 
ENDBRANCH   1   2
BRANCH   1   4
HETATM    4  S6  UNL     1     -32.184   7.063   3.789  1.00 20.00    -0.098 SA
BRANCH   4   5
HETATM    5  C4  UNL     1     -33.748   6.226   4.140  1.00 20.00     0.081 C 
HETATM    6  C2  UNL     1     -33.734   4.815   3.584  1.00 20.00     0.017 C 
ENDBRANCH   4   5
ENDBRANCH   1   4
TORSDOF 3
