REMARK  3 active torsions:
REMARK  status: ('A' for Active; 'I' for Inactive)
REMARK    1  A    between atoms: C5_5  and  S7_7 
REMARK    2  A    between atoms: C6_6  and  S8_8 
REMARK    3  A    between atoms: S7_7  and  S8_8 
ROOT
HETATM    1  S7  UNL     1     -32.451   7.341   1.462  1.00 20.00    -0.093 SA
ENDROOT
BRANCH   1   2
HETATM    2  C5  UNL     1     -33.606   8.701   1.079  1.00 20.00     0.050 C 
HETATM    3  C1  UNL     1     -33.022  10.023   1.561  1.00 20.00     0.022 C 
HETATM    4  C2  UNL     1     -33.886   8.730  -0.419  1.00 20.00     0.022 C 
ENDBRANCH   1   2
BRANCH   1   5
HETATM    5  S8  UNL     1     -32.856   7.017   3.449  1.00 20.00    -0.093 SA
BRANCH   5   6
HETATM    6  C6  UNL     1     -34.171   5.778   3.361  1.00 20.00     0.050 C 
HETATM    7  C3  UNL     1     -33.565   4.402   3.116  1.00 20.00     0.022 C 
HETATM    8  C4  UNL     1     -34.990   5.805   4.646  1.00 20.00     0.022 C 
ENDBRANCH   5   6
ENDBRANCH   1   5
TORSDOF 3
