REMARK  1 active torsions:
REMARK  status: ('A' for Active; 'I' for Inactive)
REMARK    1  A    between atoms: C6_6  and  C8_8 
ROOT
HETATM    1  C1  UNL     1     -34.766   4.897   4.652  1.00 20.00     0.000 A 
HETATM    2  C2  UNL     1     -34.352   6.102   5.218  1.00 20.00     0.001 A 
HETATM    3  C3  UNL     1     -34.370   4.562   3.357  1.00 20.00     0.001 A 
HETATM    4  C4  UNL     1     -33.541   6.972   4.490  1.00 20.00     0.007 A 
HETATM    5  C5  UNL     1     -33.560   5.432   2.628  1.00 20.00     0.007 A 
HETATM    6  C6  UNL     1     -33.145   6.638   3.195  1.00 20.00    -0.059 A 
ENDROOT
BRANCH   6   7
HETATM    7  C8  UNL     1     -32.279   7.568   2.415  1.00 20.00     0.034 C 
HETATM    8  C7  UNL     1     -33.090   8.568   1.596  1.00 20.00     0.010 C 
ENDBRANCH   6   7
TORSDOF 1
