REMARK  0 active torsions:
REMARK  status: ('A' for Active; 'I' for Inactive)
ROOT
HETATM    1  C1  UNL     1     -34.860   4.938   6.119  1.00 20.00     0.000 A 
HETATM    2  C2  UNL     1     -34.510   4.262   4.950  1.00 20.00     0.001 A 
HETATM    3  C3  UNL     1     -34.642   6.312   6.223  1.00 20.00     0.001 A 
HETATM    4  C4  UNL     1     -33.942   4.960   3.885  1.00 20.00     0.018 A 
HETATM    5  C5  UNL     1     -34.073   7.010   5.157  1.00 20.00     0.018 A 
HETATM    6  C6  UNL     1     -33.723   6.334   3.988  1.00 20.00     0.006 A 
HETATM    7  I7  UNL     1     -32.877   7.374   2.401  1.00 20.00    -0.045 I 
ENDROOT
TORSDOF 0
