REMARK  0 active torsions:
REMARK  status: ('A' for Active; 'I' for Inactive)
ROOT
HETATM    1  C1  UNL     1     -33.063   8.660   0.580  1.00 20.00     0.016 C 
HETATM    2  C2  UNL     1     -32.327   7.581   1.357  1.00 20.00     0.075 C 
HETATM    3  I3  UNL     1     -33.370   7.090   3.149  1.00 20.00    -0.090 I 
ENDROOT
TORSDOF 0
