REMARK  2 active torsions:
REMARK  status: ('A' for Active; 'I' for Inactive)
REMARK    1  A    between atoms: C6_6  and  C9_9 
REMARK    2  A    between atoms: C9_9  and  C10_10 
ROOT
HETATM    1  C1  UNL     1     -34.467   4.720   5.964  1.00 20.00     0.000 A 
HETATM    2  C2  UNL     1     -34.125   3.833   4.943  1.00 20.00     0.001 A 
HETATM    3  C3  UNL     1     -34.503   6.091   5.715  1.00 20.00     0.001 A 
HETATM    4  C4  UNL     1     -33.819   4.319   3.672  1.00 20.00     0.007 A 
HETATM    5  C5  UNL     1     -34.197   6.577   4.443  1.00 20.00     0.007 A 
HETATM    6  C6  UNL     1     -33.855   5.691   3.422  1.00 20.00    -0.058 A 
ENDROOT
BRANCH   6   7
HETATM    7  C9  UNL     1     -33.523   6.217   2.046  1.00 20.00     0.042 C 
BRANCH   7   8
HETATM    8  C10 UNL     1     -32.899   7.626   2.052  1.00 20.00    -0.019 C 
HETATM    9  C7  UNL     1     -31.588   7.670   2.842  1.00 20.00     0.010 C 
HETATM   10  C8  UNL     1     -32.649   8.088   0.614  1.00 20.00     0.010 C 
ENDBRANCH   7   8
ENDBRANCH   6   7
TORSDOF 2
