REMARK  0 active torsions:
REMARK  status: ('A' for Active; 'I' for Inactive)
ROOT
HETATM    1  C1  UNL     1     -34.050   3.984   3.879  1.00 20.00     0.001 A 
HETATM    2  C2  UNL     1     -33.520   4.754   2.844  1.00 20.00     0.007 A 
HETATM    3  C3  UNL     1     -34.424   4.591   5.078  1.00 20.00     0.007 A 
HETATM    4  C4  UNL     1     -33.737   6.737   4.207  1.00 20.00     0.013 A 
HETATM    5  C5  UNL     1     -33.363   6.130   3.007  1.00 20.00    -0.061 A 
HETATM    6  C6  UNL     1     -34.268   5.967   5.242  1.00 20.00    -0.061 A 
HETATM    7  C7  UNL     1     -32.798   6.952   1.899  1.00 20.00     0.048 C 
HETATM    8  C8  UNL     1     -34.667   6.616   6.524  1.00 20.00     0.048 C 
ENDROOT
TORSDOF 0
