REMARK  0 active torsions:
REMARK  status: ('A' for Active; 'I' for Inactive)
ROOT
HETATM    1  C1  UNL     1     -34.596   5.146   5.800  1.00 20.00     0.000 C 
HETATM    2  C2  UNL     1     -34.899   4.685   4.378  1.00 20.00     0.000 C 
HETATM    3  C3  UNL     1     -34.406   6.658   5.871  1.00 20.00     0.000 C 
HETATM    4  C4  UNL     1     -33.834   5.161   3.393  1.00 20.00     0.004 C 
HETATM    5  C5  UNL     1     -33.340   7.138   4.888  1.00 20.00     0.004 C 
HETATM    6  C6  UNL     1     -33.646   6.683   3.455  1.00 20.00    -0.018 C 
HETATM    7  C7  UNL     1     -32.540   7.129   2.500  1.00 20.00     0.010 C 
ENDROOT
TORSDOF 0
