REMARK  3 active torsions:
REMARK  status: ('A' for Active; 'I' for Inactive)
REMARK    1  A    between atoms: C6_6  and  C8_8 
REMARK    2  A    between atoms: C8_8  and  C10_10 
REMARK    3  A    between atoms: C9_9  and  C10_10 
ROOT
HETATM    1  C1  UNL     1     -34.071   4.970   6.429  1.00 20.00     0.000 A 
HETATM    2  C2  UNL     1     -34.287   4.290   5.231  1.00 20.00     0.001 A 
HETATM    3  C3  UNL     1     -33.834   6.345   6.418  1.00 20.00     0.001 A 
HETATM    4  C4  UNL     1     -34.265   4.984   4.021  1.00 20.00     0.007 A 
HETATM    5  C5  UNL     1     -33.812   7.039   5.208  1.00 20.00     0.007 A 
HETATM    6  C6  UNL     1     -34.027   6.358   4.010  1.00 20.00    -0.058 A 
ENDROOT
BRANCH   6   7
HETATM    7  C8  UNL     1     -34.003   7.109   2.702  1.00 20.00     0.038 C 
BRANCH   7   8
HETATM    8  C10 UNL     1     -32.595   7.146   2.102  1.00 20.00     0.004 C 
BRANCH   8   9
HETATM    9  C9  UNL     1     -32.570   7.938   0.795  1.00 20.00    -0.004 C 
HETATM   10  C7  UNL     1     -33.053   9.366   0.999  1.00 20.00     0.005 C 
ENDBRANCH   8   9
ENDBRANCH   7   8
ENDBRANCH   6   7
TORSDOF 3
