REMARK  5 active torsions:
REMARK  status: ('A' for Active; 'I' for Inactive)
REMARK    1  A    between atoms: C6_6  and  C8_8 
REMARK    2  A    between atoms: C8_8  and  C10_10 
REMARK    3  A    between atoms: C9_9  and  C11_11 
REMARK    4  A    between atoms: C10_10  and  C12_12 
REMARK    5  A    between atoms: C11_11  and  C12_12 
ROOT
HETATM    1  C1  UNL     1     -34.763   6.461   6.187  1.00 20.00     0.000 A 
HETATM    2  C2  UNL     1     -35.386   5.499   5.392  1.00 20.00     0.001 A 
HETATM    3  C3  UNL     1     -33.531   6.991   5.804  1.00 20.00     0.001 A 
HETATM    4  C4  UNL     1     -34.776   5.066   4.215  1.00 20.00     0.007 A 
HETATM    5  C5  UNL     1     -32.922   6.559   4.627  1.00 20.00     0.007 A 
HETATM    6  C6  UNL     1     -33.544   5.596   3.832  1.00 20.00    -0.058 A 
ENDROOT
BRANCH   6   7
HETATM    7  C8  UNL     1     -32.889   5.132   2.568  1.00 20.00     0.038 C 
BRANCH   7   8
HETATM    8  C10 UNL     1     -32.029   6.230   1.938  1.00 20.00     0.005 C 
BRANCH   8   9
HETATM    9  C12 UNL     1     -32.875   7.447   1.559  1.00 20.00     0.000 C 
BRANCH   9  10
HETATM   10  C11 UNL     1     -32.013   8.559   0.960  1.00 20.00    -0.000 C 
BRANCH  10  11
HETATM   11  C9  UNL     1     -32.853   9.787   0.612  1.00 20.00    -0.005 C 
HETATM   12  C7  UNL     1     -33.914   9.460  -0.427  1.00 20.00     0.005 C 
ENDBRANCH  10  11
ENDBRANCH   9  10
ENDBRANCH   8   9
ENDBRANCH   7   8
ENDBRANCH   6   7
TORSDOF 5
