REMARK  2 active torsions:
REMARK  status: ('A' for Active; 'I' for Inactive)
REMARK    1  A    between atoms: C6_6  and  C8_8 
REMARK    2  A    between atoms: C8_8  and  C9_9 
ROOT
HETATM    1  C1  UNL     1     -34.681   4.883   5.209  1.00 20.00     0.000 A 
HETATM    2  C2  UNL     1     -34.147   6.140   5.491  1.00 20.00     0.001 A 
HETATM    3  C3  UNL     1     -34.490   4.309   3.952  1.00 20.00     0.001 A 
HETATM    4  C4  UNL     1     -33.422   6.824   4.515  1.00 20.00     0.007 A 
HETATM    5  C5  UNL     1     -33.765   4.993   2.977  1.00 20.00     0.007 A 
HETATM    6  C6  UNL     1     -33.231   6.251   3.258  1.00 20.00    -0.058 A 
ENDROOT
BRANCH   6   7
HETATM    7  C8  UNL     1     -32.456   6.982   2.214  1.00 20.00     0.038 C 
BRANCH   7   8
HETATM    8  C9  UNL     1     -33.355   7.878   1.349  1.00 20.00     0.000 C 
HETATM    9  C7  UNL     1     -32.558   8.648   0.308  1.00 20.00     0.005 C 
ENDBRANCH   7   8
ENDBRANCH   6   7
TORSDOF 2
