REMARK  0 active torsions:
REMARK  status: ('A' for Active; 'I' for Inactive)
ROOT
HETATM    1  C1  UNL     1     -34.331   6.036   5.960  1.00 20.00     0.001 A 
HETATM    2  C2  UNL     1     -34.683   4.726   5.638  1.00 20.00     0.001 A 
HETATM    3  C3  UNL     1     -33.625   6.815   5.043  1.00 20.00     0.007 A 
HETATM    4  C4  UNL     1     -34.329   4.193   4.398  1.00 20.00     0.007 A 
HETATM    5  C5  UNL     1     -33.271   6.282   3.803  1.00 20.00    -0.056 A 
HETATM    6  C6  UNL     1     -33.623   4.972   3.481  1.00 20.00    -0.056 A 
HETATM    7  C7  UNL     1     -32.516   7.135   2.836  1.00 20.00     0.049 C 
HETATM    8  C8  UNL     1     -33.254   4.380   2.160  1.00 20.00     0.049 C 
ENDROOT
TORSDOF 0
