REMARK  1 active torsions:
REMARK  status: ('A' for Active; 'I' for Inactive)
REMARK    1  A    between atoms: C6_6  and  N9_9 
ROOT
HETATM    1  N8  UNL     1     -32.845   9.119   0.450  1.00 20.00     0.068 N 
HETATM    2  N9  UNL     1     -32.599   6.766   0.803  1.00 20.00    -0.073 NA
HETATM    3  N10 UNL     1     -32.729   7.997   0.622  1.00 20.00    -0.162 NA
ENDROOT
BRANCH   2   4
HETATM    4  C6  UNL     1     -33.194   6.327   1.990  1.00 20.00     0.093 A 
HETATM    5  C3  UNL     1     -33.702   5.031   2.076  1.00 20.00     0.035 A 
HETATM    6  C1  UNL     1     -34.295   4.591   3.260  1.00 20.00     0.009 A 
HETATM    7  C5  UNL     1     -34.379   5.449   4.358  1.00 20.00    -0.062 A 
HETATM    8  C2  UNL     1     -33.871   6.745   4.271  1.00 20.00     0.009 A 
HETATM    9  C7  UNL     1     -35.013   4.980   5.623  1.00 20.00     0.048 C 
HETATM   10  C4  UNL     1     -33.278   7.184   3.087  1.00 20.00     0.035 A 
ENDBRANCH   2   4
TORSDOF 1
