REMARK  0 active torsions:
REMARK  status: ('A' for Active; 'I' for Inactive)
ROOT
HETATM    1  C1  UNL     1     -33.887   6.621   5.473  1.00 20.00     0.007 A 
HETATM    2  C2  UNL     1     -33.222   7.012   4.311  1.00 20.00     0.007 A 
HETATM    3  C3  UNL     1     -34.561   4.566   4.395  1.00 20.00     0.007 A 
HETATM    4  C4  UNL     1     -33.895   4.958   3.233  1.00 20.00     0.007 A 
HETATM    5  C5  UNL     1     -34.556   5.398   5.515  1.00 20.00    -0.062 A 
HETATM    6  C6  UNL     1     -33.226   6.181   3.191  1.00 20.00    -0.062 A 
HETATM    7  C7  UNL     1     -35.268   4.978   6.756  1.00 20.00     0.048 C 
HETATM    8  C8  UNL     1     -32.515   6.601   1.949  1.00 20.00     0.048 C 
ENDROOT
TORSDOF 0
