REMARK  0 active torsions:
REMARK  status: ('A' for Active; 'I' for Inactive)
ROOT
HETATM    1  C1  UNL     1     -32.509   7.647   1.579  1.00 20.00     0.018 C 
HETATM    2  C2  UNL     1     -32.953   6.981   2.474  1.00 20.00    -0.078 C 
HETATM    3  C3  UNL     1     -34.510   4.639   5.618  1.00 20.00     0.000 A 
HETATM    4  C4  UNL     1     -34.281   4.064   4.368  1.00 20.00     0.001 A 
HETATM    5  C5  UNL     1     -34.224   5.988   5.829  1.00 20.00     0.001 A 
HETATM    6  C6  UNL     1     -33.766   4.839   3.329  1.00 20.00     0.020 A 
HETATM    7  C7  UNL     1     -33.709   6.762   4.790  1.00 20.00     0.020 A 
HETATM    8  C8  UNL     1     -33.480   6.188   3.539  1.00 20.00     0.016 A 
ENDROOT
TORSDOF 0
