REMARK  2 active torsions:
REMARK  status: ('A' for Active; 'I' for Inactive)
REMARK    1  A    between atoms: C6_6  and  C10_10 
REMARK    2  A    between atoms: C9_9  and  C10_10 
ROOT
HETATM    1  C1  UNL     1     -34.896   5.495   6.555  1.00 20.00     0.000 A 
HETATM    2  C2  UNL     1     -34.197   6.701   6.547  1.00 20.00     0.001 A 
HETATM    3  C3  UNL     1     -34.928   4.699   5.410  1.00 20.00     0.001 A 
HETATM    4  C4  UNL     1     -33.530   7.113   5.393  1.00 20.00     0.007 A 
HETATM    5  C5  UNL     1     -34.261   5.110   4.256  1.00 20.00     0.007 A 
HETATM    6  C6  UNL     1     -33.562   6.318   4.247  1.00 20.00    -0.054 A 
ENDROOT
BRANCH   6   7
HETATM    7  C10 UNL     1     -32.836   6.765   2.990  1.00 20.00     0.014 C 
HETATM    8  C8  UNL     1     -32.364   5.551   2.181  1.00 20.00     0.015 C 
BRANCH   7   9
HETATM    9  C9  UNL     1     -33.680   7.703   2.104  1.00 20.00     0.004 C 
HETATM   10  C7  UNL     1     -32.949   8.156   0.846  1.00 20.00     0.006 C 
ENDBRANCH   7   9
ENDBRANCH   6   7
TORSDOF 2
