REMARK  1 active torsions:
REMARK  status: ('A' for Active; 'I' for Inactive)
REMARK    1  A    between atoms: C6_6  and  C8_8 
ROOT
HETATM    1  C1  UNL     1     -34.899   5.290   5.408  1.00 20.00     0.000 A 
HETATM    2  C2  UNL     1     -34.210   6.428   5.828  1.00 20.00     0.001 A 
HETATM    3  C3  UNL     1     -34.722   4.806   4.112  1.00 20.00     0.001 A 
HETATM    4  C4  UNL     1     -33.346   7.083   4.951  1.00 20.00     0.011 A 
HETATM    5  C5  UNL     1     -33.857   5.461   3.235  1.00 20.00     0.011 A 
HETATM    6  C6  UNL     1     -33.169   6.599   3.655  1.00 20.00    -0.037 A 
ENDROOT
BRANCH   6   7
HETATM    7  C8  UNL     1     -32.267   7.282   2.740  1.00 20.00     0.001 C 
HETATM    8  C7  UNL     1     -32.447   7.330   1.427  1.00 20.00     0.012 C 
ENDBRANCH   6   7
TORSDOF 1
