REMARK  0 active torsions:
REMARK  status: ('A' for Active; 'I' for Inactive)
ROOT
HETATM    1  C1  UNL     1     -34.632   6.583   6.318  1.00 20.00     0.001 A 
HETATM    2  C2  UNL     1     -35.117   5.355   5.891  1.00 20.00     0.001 A 
HETATM    3  C3  UNL     1     -33.830   7.357   5.474  1.00 20.00     0.013 A 
HETATM    4  C4  UNL     1     -34.812   4.873   4.616  1.00 20.00     0.019 A 
HETATM    5  C5  UNL     1     -32.709   7.501   3.144  1.00 20.00     0.020 A 
HETATM    6  C6  UNL     1     -32.627   6.728   2.010  1.00 20.00     0.051 A 
HETATM    7  C7  UNL     1     -33.503   6.896   4.176  1.00 20.00    -0.019 A 
HETATM    8  C8  UNL     1     -34.003   5.656   3.769  1.00 20.00     0.015 A 
HETATM    9  S9  UNL     1     -33.498   5.271   2.165  1.00 20.00    -0.101 SA
ENDROOT
TORSDOF 0
