REMARK  1 active torsions:
REMARK  status: ('A' for Active; 'I' for Inactive)
REMARK    1  A    between atoms: C6_6  and  S8_8 
ROOT
HETATM    1  C1  UNL     1     -34.812   4.475   5.055  1.00 20.00     0.000 A 
HETATM    2  C2  UNL     1     -34.273   4.225   3.793  1.00 20.00     0.001 A 
HETATM    3  C3  UNL     1     -34.543   5.681   5.701  1.00 20.00     0.001 A 
HETATM    4  C4  UNL     1     -33.466   5.181   3.177  1.00 20.00     0.018 A 
HETATM    5  C5  UNL     1     -33.736   6.638   5.086  1.00 20.00     0.018 A 
HETATM    6  C6  UNL     1     -33.198   6.388   3.823  1.00 20.00    -0.000 A 
ENDROOT
BRANCH   6   7
HETATM    7  S8  UNL     1     -32.166   7.610   3.037  1.00 20.00    -0.134 SA
HETATM    8  C7  UNL     1     -32.538   7.250   1.306  1.00 20.00     0.095 C 
ENDBRANCH   6   7
TORSDOF 1
