REMARK  0 active torsions:
REMARK  status: ('A' for Active; 'I' for Inactive)
ROOT
HETATM    1  C1  UNL     1     -35.108   5.024   6.174  1.00 20.00     0.000 A 
HETATM    2  C2  UNL     1     -34.626   6.318   6.374  1.00 20.00     0.001 A 
HETATM    3  C3  UNL     1     -34.910   4.388   4.948  1.00 20.00     0.001 A 
HETATM    4  C4  UNL     1     -33.948   6.976   5.348  1.00 20.00     0.007 A 
HETATM    5  C5  UNL     1     -34.231   5.046   3.923  1.00 20.00     0.007 A 
HETATM    6  C6  UNL     1     -33.750   6.340   4.123  1.00 20.00    -0.062 A 
HETATM    7  C7  UNL     1     -33.024   7.043   3.025  1.00 20.00     0.048 C 
ENDROOT
TORSDOF 0
