REMARK  0 active torsions:
REMARK  status: ('A' for Active; 'I' for Inactive)
ROOT
HETATM    1  C1  UNL     1     -35.140   5.512   4.283  1.00 20.00     0.075 C 
HETATM    2  C2  UNL     1     -32.134   8.310   2.303  1.00 20.00     0.084 C 
HETATM    3  C3  UNL     1     -32.705   7.206   1.428  1.00 20.00     0.085 C 
HETATM    4  C4  UNL     1     -33.936   7.652   4.302  1.00 20.00     0.104 C 
HETATM    5  C5  UNL     1     -34.519   6.539   3.429  1.00 20.00     0.163 C 
HETATM    6  N6  UNL     1     -35.629   4.703   4.955  1.00 20.00    -0.196 NA
HETATM    7  S7  UNL     1     -33.395   9.102   3.345  1.00 20.00    -0.166 SA
HETATM    8  S8  UNL     1     -33.236   5.755   2.385  1.00 20.00    -0.148 SA
ENDROOT
TORSDOF 0
