REMARK  2 active torsions:
REMARK  status: ('A' for Active; 'I' for Inactive)
REMARK    1  A    between atoms: C3_3  and  O11_11 
REMARK    2  A    between atoms: C8_8  and  O11_11 
ROOT
HETATM    1  C1  UNL     1     -31.955  10.272   0.391  1.00 20.00    -0.025 C 
HETATM    2  C2  UNL     1     -32.917   9.369   0.154  1.00 20.00    -0.023 C 
HETATM    3  C4  UNL     1     -30.931   8.424  -0.550  1.00 20.00     0.019 C 
HETATM    4  C5  UNL     1     -30.682   8.709   1.810  1.00 20.00     0.042 C 
HETATM    5  C6  UNL     1     -30.652   9.516   0.491  1.00 20.00     0.011 C 
HETATM    6  C7  UNL     1     -32.256   8.010   0.100  1.00 20.00     0.038 C 
HETATM    7  C8  UNL     1     -31.753   7.623   1.511  1.00 20.00     0.140 C 
ENDROOT
BRANCH   7   8
HETATM    8  O11 UNL     1     -32.788   7.625   2.475  1.00 20.00    -0.316 OA
BRANCH   8   9
HETATM    9  C3  UNL     1     -33.410   6.423   2.693  1.00 20.00     0.255 C 
HETATM   10  C9  UNL     1     -34.478   6.576   3.734  1.00 20.00     0.126 C 
HETATM   11  O10 UNL     1     -33.147   5.369   2.131  1.00 20.00    -0.266 OA
ENDBRANCH   8   9
ENDBRANCH   7   8
TORSDOF 2
