REMARK  0 active torsions:
REMARK  status: ('A' for Active; 'I' for Inactive)
ROOT
HETATM    1  C1  UNL     1     -31.621   5.911   1.351  1.00 20.00    -0.030 C 
HETATM    2  C2  UNL     1     -31.248   7.180   1.640  1.00 20.00    -0.029 C 
HETATM    3  C3  UNL     1     -34.584   6.303   3.804  1.00 20.00     0.224 C 
HETATM    4  C4  UNL     1     -32.854   5.234   1.948  1.00 20.00     0.043 C 
HETATM    5  C5  UNL     1     -32.053   8.110   2.546  1.00 20.00     0.053 C 
HETATM    6  C6  UNL     1     -33.223   6.055   3.159  1.00 20.00     0.104 C 
HETATM    7  C7  UNL     1     -33.426   7.493   2.625  1.00 20.00     0.101 C 
HETATM    8  N8  UNL     1     -34.324   7.659   3.755  1.00 20.00    -0.355 N 
HETATM    9  O9  UNL     1     -35.495   5.650   4.251  1.00 20.00    -0.273 OA
HETATM   10  H18 UNL     1     -34.961   8.405   4.002  1.00 20.00     0.162 HD
ENDROOT
TORSDOF 0
