REMARK  1 active torsions:
REMARK  status: ('A' for Active; 'I' for Inactive)
REMARK    1  A    between atoms: C8_8  and  N9_9 
ROOT
HETATM    1  C1  UNL     1     -32.198   8.850   0.457  1.00 20.00     0.158 C 
HETATM    2  N9  UNL     1     -31.962   7.718   0.667  1.00 20.00    -0.270 NA
HETATM    3  S10 UNL     1     -32.506  10.381   0.146  1.00 20.00    -0.055 SA
ENDROOT
BRANCH   2   4
HETATM    4  C8  UNL     1     -32.346   7.245   1.998  1.00 20.00     0.118 C 
HETATM    5  C5  UNL     1     -32.786   5.755   1.925  1.00 20.00     0.036 C 
HETATM    6  C6  UNL     1     -34.258   5.813   2.394  1.00 20.00     0.010 C 
HETATM    7  C2  UNL     1     -34.270   6.239   3.844  1.00 20.00    -0.026 C 
HETATM    8  C4  UNL     1     -34.720   7.126   1.758  1.00 20.00     0.019 C 
HETATM    9  C3  UNL     1     -33.903   7.529   3.883  1.00 20.00    -0.024 C 
HETATM   10  C7  UNL     1     -33.637   7.959   2.458  1.00 20.00     0.033 C 
ENDBRANCH   2   4
TORSDOF 1
