REMARK  2 active torsions:
REMARK  status: ('A' for Active; 'I' for Inactive)
REMARK    1  A    between atoms: C3_3  and  C5_5 
REMARK    2  A    between atoms: C5_5  and  C6_6 
ROOT
HETATM    1  C1  UNL     1     -34.003   5.824   3.686  1.00 20.00     0.179 C 
HETATM    2  C2  UNL     1     -34.170   5.073   2.377  1.00 20.00     0.103 C 
HETATM    3  C3  UNL     1     -32.862   7.324   2.340  1.00 20.00     0.182 C 
HETATM    4  O7  UNL     1     -33.845   7.214   3.379  1.00 20.00    -0.375 OA
HETATM    5  S8  UNL     1     -32.917   5.823   1.324  1.00 20.00    -0.135 SA
ENDROOT
BRANCH   3   6
HETATM    6  C5  UNL     1     -33.160   8.561   1.514  1.00 20.00     0.042 C 
BRANCH   6   7
HETATM    7  C6  UNL     1     -31.924   9.038   0.751  1.00 20.00    -0.001 C 
HETATM    8  C4  UNL     1     -32.229  10.261  -0.099  1.00 20.00     0.005 C 
ENDBRANCH   6   7
ENDBRANCH   3   6
TORSDOF 2
