REMARK  0 active torsions:
REMARK  status: ('A' for Active; 'I' for Inactive)
ROOT
HETATM    1  C1  UNL     1     -34.912   6.524   4.243  1.00 20.00     0.029 C 
HETATM    2  C2  UNL     1     -33.934   5.669   3.438  1.00 20.00     0.048 C 
HETATM    3  C3  UNL     1     -34.299   7.880   4.569  1.00 20.00     0.170 C 
HETATM    4  C4  UNL     1     -32.838   7.809   2.701  1.00 20.00     0.255 C 
HETATM    5  C5  UNL     1     -33.358   6.434   2.235  1.00 20.00     0.152 C 
HETATM    6  O6  UNL     1     -33.861   8.539   3.382  1.00 20.00    -0.367 OA
HETATM    7 CL7  UNL     1     -32.229   8.830   1.365  1.00 20.00    -0.092 Cl
HETATM    8 CL8  UNL     1     -32.030   5.461   1.516  1.00 20.00    -0.098 Cl
HETATM    9 CL9  UNL     1     -34.645   6.617   0.985  1.00 20.00    -0.098 Cl
ENDROOT
TORSDOF 0
