REMARK  0 active torsions:
REMARK  status: ('A' for Active; 'I' for Inactive)
ROOT
HETATM    1  C1  UNL     1     -32.644   5.975   2.128  1.00 20.00     0.056 A 
HETATM    2  C2  UNL     1     -32.576   7.334   2.355  1.00 20.00     0.077 A 
HETATM    3  C3  UNL     1     -34.306   6.156   3.547  1.00 20.00     0.072 A 
HETATM    4  C4  UNL     1     -31.768   5.186   1.236  1.00 20.00     0.072 C 
HETATM    5  C5  UNL     1     -35.445   5.799   4.420  1.00 20.00     0.079 C 
HETATM    6  N6  UNL     1     -33.635   5.298   2.812  1.00 20.00    -0.249 NA
HETATM    7  S7  UNL     1     -33.799   7.794   3.465  1.00 20.00    -0.066 SA
HETATM    8 BR8  UNL     1     -31.340   8.543   1.580  1.00 20.00    -0.041 Br
ENDROOT
TORSDOF 0
