REMARK  2 active torsions:
REMARK  status: ('A' for Active; 'I' for Inactive)
REMARK    1  A    between atoms: C3_3  and  C5_5 
REMARK    2  A    between atoms: C5_5  and  C6_6 
ROOT
HETATM    1  C1  UNL     1     -33.199   5.274   3.000  1.00 20.00     0.179 C 
HETATM    2  C2  UNL     1     -34.170   6.161   3.758  1.00 20.00     0.103 C 
HETATM    3  C3  UNL     1     -32.649   7.268   1.958  1.00 20.00     0.182 C 
HETATM    4  O7  UNL     1     -32.947   5.884   1.728  1.00 20.00    -0.375 OA
HETATM    5  S8  UNL     1     -33.527   7.814   3.447  1.00 20.00    -0.135 SA
ENDROOT
BRANCH   3   6
HETATM    6  C5  UNL     1     -33.074   8.068   0.741  1.00 20.00     0.042 C 
BRANCH   6   7
HETATM    7  C6  UNL     1     -32.348   9.412   0.670  1.00 20.00    -0.001 C 
HETATM    8  C4  UNL     1     -32.753  10.202  -0.564  1.00 20.00     0.005 C 
ENDBRANCH   6   7
ENDBRANCH   3   6
TORSDOF 2
