REMARK  1 active torsions:
REMARK  status: ('A' for Active; 'I' for Inactive)
REMARK    1  A    between atoms: C4_4  and  C5_5 
ROOT
HETATM    1  C1  UNL     1     -33.380   6.003   1.989  1.00 20.00     0.029 C 
HETATM    2  C2  UNL     1     -32.004   6.092   1.380  1.00 20.00     0.035 C 
HETATM    3  C3  UNL     1     -33.369   7.167   2.954  1.00 20.00     0.168 C 
HETATM    4  C4  UNL     1     -31.761   7.593   1.314  1.00 20.00     0.131 C 
HETATM    5  O6  UNL     1     -32.553   8.185   2.360  1.00 20.00    -0.385 OA
ENDROOT
BRANCH   4   6
HETATM    6  C5  UNL     1     -32.188   8.205  -0.013  1.00 20.00     0.117 C 
HETATM    7 BR7  UNL     1     -32.490  10.111   0.211  1.00 20.00    -0.094 Br
ENDBRANCH   4   6
TORSDOF 1
