REMARK  0 active torsions:
REMARK  status: ('A' for Active; 'I' for Inactive)
ROOT
HETATM    1  C1  UNL     1     -31.828   6.743   0.951  1.00 20.00     0.136 A 
HETATM    2  C2  UNL     1     -31.770   7.948   1.610  1.00 20.00     0.136 A 
HETATM    3  C3  UNL     1     -33.481   6.032   2.383  1.00 20.00     0.059 A 
HETATM    4  C4  UNL     1     -33.430   7.255   3.042  1.00 20.00     0.059 A 
HETATM    5  C5  UNL     1     -34.468   4.965   2.767  1.00 20.00     0.061 C 
HETATM    6  C6  UNL     1     -34.280   7.542   4.247  1.00 20.00     0.061 C 
HETATM    7  C7  UNL     1     -35.041   5.155   4.170  1.00 20.00     0.006 C 
HETATM    8  C8  UNL     1     -35.477   6.602   4.376  1.00 20.00     0.006 C 
HETATM    9  N9  UNL     1     -32.682   5.771   1.322  1.00 20.00    -0.262 NA
HETATM   10  N10 UNL     1     -32.562   8.222   2.662  1.00 20.00    -0.262 NA
ENDROOT
TORSDOF 0
