REMARK  0 active torsions:
REMARK  status: ('A' for Active; 'I' for Inactive)
ROOT
HETATM    1  C1  UNL     1     -31.514   7.194   1.403  1.00 20.00     0.000 C 
HETATM    2  C2  UNL     1     -32.143   5.893   1.288  1.00 20.00     0.017 C 
HETATM    3  C3  UNL     1     -32.117   8.191   2.076  1.00 20.00     0.010 C 
HETATM    4  C4  UNL     1     -33.222   5.622   2.039  1.00 20.00     0.092 C 
HETATM    5  C5  UNL     1     -34.570   7.371   4.898  1.00 20.00     0.072 C 
HETATM    6  C6  UNL     1     -34.516   6.325   4.052  1.00 20.00     0.015 C 
HETATM    7  C7  UNL     1     -33.482   8.000   2.677  1.00 20.00     0.178 C 
HETATM    8  C8  UNL     1     -35.131   4.995   4.344  1.00 20.00     0.069 C 
HETATM    9  N9  UNL     1     -33.793   6.564   2.878  1.00 20.00    -0.343 N 
HETATM   10  S10 UNL     1     -33.684   8.764   4.330  1.00 20.00    -0.110 SA
ENDROOT
TORSDOF 0
