REMARK  1 active torsions:
REMARK  status: ('A' for Active; 'I' for Inactive)
REMARK    1  A    between atoms: C9_9  and  C10_10 
ROOT
HETATM    1  C1  UNL     1     -32.568   5.951   1.795  1.00 20.00     0.015 C 
HETATM    2  C2  UNL     1     -33.269   7.619   3.588  1.00 20.00     0.015 C 
HETATM    3  C5  UNL     1     -33.723   5.000   2.083  1.00 20.00     0.074 C 
HETATM    4  C6  UNL     1     -34.480   6.801   4.019  1.00 20.00     0.074 C 
HETATM    5  C9  UNL     1     -32.897   7.417   2.111  1.00 20.00    -0.009 C 
HETATM    6  S11 UNL     1     -34.194   5.020   3.835  1.00 20.00    -0.169 SA
ENDROOT
BRANCH   5   7
HETATM    7  C10 UNL     1     -31.713   8.315   1.740  1.00 20.00    -0.009 C 
HETATM    8  C3  UNL     1     -31.319   8.158   0.263  1.00 20.00     0.015 C 
HETATM    9  C7  UNL     1     -32.332   8.717  -0.729  1.00 20.00     0.074 C 
HETATM   10  S12 UNL     1     -32.611  10.494  -0.488  1.00 20.00    -0.169 SA
HETATM   11  C8  UNL     1     -33.037  10.477   1.276  1.00 20.00     0.074 C 
HETATM   12  C4  UNL     1     -31.969   9.782   2.114  1.00 20.00     0.015 C 
ENDBRANCH   5   7
TORSDOF 1
