REMARK  0 active torsions:
REMARK  status: ('A' for Active; 'I' for Inactive)
ROOT
HETATM    1  C1  UNL     1     -32.862   8.213   4.207  1.00 20.00    -0.028 C 
HETATM    2  C2  UNL     1     -34.074   7.886   4.666  1.00 20.00    -0.023 C 
HETATM    3  C3  UNL     1     -34.194   4.780   4.013  1.00 20.00     0.259 C 
HETATM    4  C4  UNL     1     -32.600   7.625   2.859  1.00 20.00     0.060 C 
HETATM    5  C5  UNL     1     -35.333   5.726   4.249  1.00 20.00     0.122 C 
HETATM    6  C6  UNL     1     -34.830   7.035   3.688  1.00 20.00     0.047 C 
HETATM    7  C7  UNL     1     -33.746   6.623   2.704  1.00 20.00     0.143 C 
HETATM    8  O8  UNL     1     -34.084   3.670   4.511  1.00 20.00    -0.265 OA
HETATM    9  O9  UNL     1     -33.309   5.320   3.126  1.00 20.00    -0.315 OA
ENDROOT
TORSDOF 0
