REMARK  3 active torsions:
REMARK  status: ('A' for Active; 'I' for Inactive)
REMARK    1  A    between atoms: C2_2  and  C5_5 
REMARK    2  A    between atoms: C2_2  and  O10_10 
REMARK    3  A    between atoms: C7_7  and  O10_10 
ROOT
HETATM    1  C1  UNL     1     -32.596   9.478   0.732  1.00 20.00     0.065 C 
HETATM    2  C3  UNL     1     -31.273   7.719   1.976  1.00 20.00     0.036 A 
HETATM    3  C4  UNL     1     -32.338   8.090   0.982  1.00 20.00     0.107 A 
HETATM    4  C5  UNL     1     -32.722   7.512   2.324  1.00 20.00     0.104 A 
HETATM    5  N8  UNL     1     -32.805  10.601   0.529  1.00 20.00    -0.197 NA
ENDROOT
BRANCH   4   6
HETATM    6  C2  UNL     1     -33.257   6.147   2.388  1.00 20.00     0.264 C 
HETATM    7  O9  UNL     1     -32.914   5.241   1.640  1.00 20.00    -0.265 OA
BRANCH   6   8
HETATM    8  O10 UNL     1     -34.174   6.063   3.392  1.00 20.00    -0.322 OA
BRANCH   8   9
HETATM    9  C7  UNL     1     -34.780   4.778   3.567  1.00 20.00     0.174 C 
HETATM   10  C6  UNL     1     -33.952   3.971   4.544  1.00 20.00     0.034 C 
ENDBRANCH   8   9
ENDBRANCH   6   8
ENDBRANCH   4   6
TORSDOF 3
