REMARK  0 active torsions:
REMARK  status: ('A' for Active; 'I' for Inactive)
ROOT
HETATM    1  C1  UNL     1     -32.693   6.023   1.421  1.00 20.00     0.197 C 
HETATM    2  C2  UNL     1     -33.514   6.418   2.618  1.00 20.00     0.197 C 
HETATM    3  C3  UNL     1     -32.119   8.119   2.070  1.00 20.00     0.156 C 
HETATM    4  C4  UNL     1     -32.276   9.196   1.004  1.00 20.00     0.078 C 
HETATM    5  C5  UNL     1     -31.171   8.567   3.175  1.00 20.00     0.078 C 
HETATM    6  O6  UNL     1     -31.589   6.927   1.466  1.00 20.00    -0.354 OA
HETATM    7  O7  UNL     1     -33.410   7.841   2.635  1.00 20.00    -0.354 OA
ENDROOT
TORSDOF 0
