REMARK  0 active torsions:
REMARK  status: ('A' for Active; 'I' for Inactive)
ROOT
HETATM    1  C1  UNL     1     -33.190   7.805   3.197  1.00 20.00     0.038 A 
HETATM    2  C2  UNL     1     -33.234   5.657   2.117  1.00 20.00     0.058 A 
HETATM    3  C3  UNL     1     -32.073   8.106   2.434  1.00 20.00     0.119 A 
HETATM    4  C4  UNL     1     -33.776   6.556   3.029  1.00 20.00     0.015 A 
HETATM    5  C5  UNL     1     -32.115   6.054   1.402  1.00 20.00     0.104 A 
HETATM    6  N6  UNL     1     -31.519   7.259   1.538  1.00 20.00    -0.254 NA
HETATM    7 BR7  UNL     1     -35.302   6.082   4.036  1.00 20.00    -0.051 Br
HETATM    8 BR8  UNL     1     -31.359   4.843   0.150  1.00 20.00    -0.029 Br
ENDROOT
TORSDOF 0
