REMARK  0 active torsions:
REMARK  status: ('A' for Active; 'I' for Inactive)
ROOT
HETATM    1  C1  UNL     1     -33.640   6.299   2.648  1.00 20.00     0.006 C 
HETATM    2  C2  UNL     1     -33.678   7.339   3.770  1.00 20.00     0.006 C 
HETATM    3  C3  UNL     1     -32.506   6.720   1.718  1.00 20.00     0.068 C 
HETATM    4  C4  UNL     1     -32.573   8.344   3.455  1.00 20.00     0.068 C 
HETATM    5  C5  UNL     1     -32.713   9.651   0.234  1.00 20.00     0.197 C 
HETATM    6  C6  UNL     1     -31.360   9.903   0.842  1.00 20.00     0.197 C 
HETATM    7  C7  UNL     1     -32.371   8.219   1.950  1.00 20.00     0.164 C 
HETATM    8  O8  UNL     1     -33.404   8.933   1.256  1.00 20.00    -0.353 OA
HETATM    9  O9  UNL     1     -31.087   8.693   1.547  1.00 20.00    -0.353 OA
ENDROOT
TORSDOF 0
