REMARK  0 active torsions:
REMARK  status: ('A' for Active; 'I' for Inactive)
ROOT
HETATM    1  C1  UNL     1     -33.240   7.412   3.019  1.00 20.00     0.226 C 
HETATM    2  C2  UNL     1     -31.374   6.856   1.641  1.00 20.00     0.043 C 
HETATM    3  C3  UNL     1     -32.528   5.903   1.345  1.00 20.00     0.081 C 
HETATM    4  C4  UNL     1     -32.050   8.063   2.322  1.00 20.00     0.035 C 
HETATM    5  C5  UNL     1     -32.105   4.445   1.314  1.00 20.00     0.032 C 
HETATM    6  C6  UNL     1     -32.564   9.076   1.294  1.00 20.00     0.025 C 
HETATM    7  C7  UNL     1     -31.121   8.741   3.325  1.00 20.00     0.025 C 
HETATM    8  N8  UNL     1     -33.462   6.183   2.405  1.00 20.00    -0.356 N 
HETATM    9  O9  UNL     1     -33.899   7.908   3.921  1.00 20.00    -0.273 OA
HETATM   10  H22 UNL     1     -34.206   5.549   2.677  1.00 20.00     0.162 HD
ENDROOT
TORSDOF 0
