REMARK  0 active torsions:
REMARK  status: ('A' for Active; 'I' for Inactive)
ROOT
HETATM    1  C1  UNL     1     -33.848   7.637   4.220  1.00 20.00    -0.007 C 
HETATM    2  C2  UNL     1     -34.183   6.530   3.545  1.00 20.00     0.008 C 
HETATM    3  C3  UNL     1     -32.792   8.590   3.753  1.00 20.00     0.035 C 
HETATM    4  C4  UNL     1     -33.546   6.109   2.257  1.00 20.00     0.058 C 
HETATM    5  C5  UNL     1     -31.400   9.152   1.724  1.00 20.00     0.172 C 
HETATM    6  C6  UNL     1     -33.313   8.206   0.773  1.00 20.00     0.172 C 
HETATM    7  C7  UNL     1     -31.883   8.035   2.638  1.00 20.00     0.019 C 
HETATM    8  C8  UNL     1     -32.625   7.160   1.640  1.00 20.00     0.021 C 
HETATM    9  O9  UNL     1     -32.429   9.340   0.735  1.00 20.00    -0.390 OA
HETATM   10 CL10 UNL     1     -35.421   5.482   4.145  1.00 20.00    -0.089 Cl
ENDROOT
TORSDOF 0
