REMARK  0 active torsions:
REMARK  status: ('A' for Active; 'I' for Inactive)
ROOT
HETATM    1  C1  UNL     1     -32.846   8.060   2.766  1.00 20.00     0.089 A 
HETATM    2  C2  UNL     1     -32.512   5.945   1.519  1.00 20.00     0.089 A 
HETATM    3  C3  UNL     1     -33.600   7.026   3.262  1.00 20.00     0.109 A 
HETATM    4  C4  UNL     1     -33.387   5.811   2.568  1.00 20.00     0.109 A 
HETATM    5  C5  UNL     1     -35.324   6.033   4.405  1.00 20.00     0.202 C 
HETATM    6  C6  UNL     1     -34.579   4.712   4.190  1.00 20.00     0.202 C 
HETATM    7  O7  UNL     1     -34.438   7.163   4.316  1.00 20.00    -0.346 OA
HETATM    8  O8  UNL     1     -33.991   4.641   2.881  1.00 20.00    -0.346 OA
HETATM    9  S9  UNL     1     -31.912   7.553   1.415  1.00 20.00    -0.108 SA
ENDROOT
TORSDOF 0
