REMARK  4 active torsions:
REMARK  status: ('A' for Active; 'I' for Inactive)
REMARK    1  A    between atoms: C1_1  and  C5_5 
REMARK    2  A    between atoms: C1_1  and  O9_9 
REMARK    3  A    between atoms: C5_5  and  C6_6 
REMARK    4  A    between atoms: C7_7  and  O9_9 
ROOT
HETATM    1  C1  UNL     1     -32.750   7.449   2.297  1.00 20.00     0.259 C 
HETATM    2  O8  UNL     1     -32.939   6.422   1.660  1.00 20.00    -0.265 OA
ENDROOT
BRANCH   1   3
HETATM    3  C5  UNL     1     -33.062   7.634   3.765  1.00 20.00     0.111 C 
BRANCH   3   4
HETATM    4  C6  UNL     1     -34.547   7.448   4.062  1.00 20.00     0.005 C 
HETATM    5  C2  UNL     1     -35.031   6.068   3.647  1.00 20.00     0.005 C 
ENDBRANCH   3   4
ENDBRANCH   1   3
BRANCH   1   6
HETATM    6  O9  UNL     1     -32.228   8.611   1.806  1.00 20.00    -0.317 OA
BRANCH   6   7
HETATM    7  C7  UNL     1     -32.491   8.869   0.423  1.00 20.00     0.123 C 
HETATM    8  C3  UNL     1     -32.583  10.371   0.202  1.00 20.00     0.040 C 
HETATM    9  C4  UNL     1     -31.393   8.238  -0.421  1.00 20.00     0.040 C 
ENDBRANCH   6   7
ENDBRANCH   1   6
TORSDOF 4
