REMARK  2 active torsions:
REMARK  status: ('A' for Active; 'I' for Inactive)
REMARK    1  A    between atoms: C5_5  and  C6_6 
REMARK    2  A    between atoms: C6_6  and  N8_8 
ROOT
HETATM    1  C1  UNL     1     -34.074   6.192   3.284  1.00 20.00     0.135 A 
HETATM    2  C2  UNL     1     -33.342   6.320   2.127  1.00 20.00     0.111 A 
HETATM    3  C3  UNL     1     -33.150   8.105   3.405  1.00 20.00     0.209 A 
HETATM    4  N7  UNL     1     -33.951   7.307   4.075  1.00 20.00    -0.255 NA
HETATM    5  N8  UNL     1     -32.756   7.550   2.219  1.00 20.00    -0.350 N 
ENDROOT
BRANCH   5   6
HETATM    6  C6  UNL     1     -31.870   8.161   1.233  1.00 20.00     0.129 C 
BRANCH   6   7
HETATM    7  C5  UNL     1     -32.586   9.219   0.395  1.00 20.00     0.016 C 
HETATM    8  C4  UNL     1     -31.653   9.835  -0.633  1.00 20.00     0.006 C 
ENDBRANCH   6   7
ENDBRANCH   5   6
TORSDOF 2
