REMARK  0 active torsions:
REMARK  status: ('A' for Active; 'I' for Inactive)
ROOT
HETATM    1  C1  UNL     1     -35.204   4.671   4.370  1.00 20.00    -0.024 C 
HETATM    2  C2  UNL     1     -33.907   4.312   4.307  1.00 20.00    -0.083 C 
HETATM    3  C3  UNL     1     -35.650   6.049   3.925  1.00 20.00     0.033 C 
HETATM    4  C4  UNL     1     -33.275   6.745   4.510  1.00 20.00     0.015 C 
HETATM    5  C5  UNL     1     -32.959   5.373   3.808  1.00 20.00     0.022 C 
HETATM    6  C6  UNL     1     -34.421   6.853   3.450  1.00 20.00    -0.002 C 
HETATM    7  C7  UNL     1     -33.437   6.083   2.463  1.00 20.00    -0.036 C 
HETATM    8  C8  UNL     1     -33.366   2.979   4.698  1.00 20.00     0.043 C 
HETATM    9  C9  UNL     1     -34.073   5.212   1.372  1.00 20.00     0.016 C 
HETATM   10  C10 UNL     1     -32.370   6.965   1.783  1.00 20.00     0.016 C 
ENDROOT
TORSDOF 0
