REMARK  0 active torsions:
REMARK  status: ('A' for Active; 'I' for Inactive)
ROOT
HETATM    1  C1  UNL     1     -33.352   7.899   3.454  1.00 20.00    -0.017 C 
HETATM    2  C2  UNL     1     -33.952   6.578   3.075  1.00 20.00     0.155 C 
HETATM    3  C3  UNL     1     -33.958   8.731   4.306  1.00 20.00     0.023 C 
HETATM    4  C4  UNL     1     -33.159   5.790   2.036  1.00 20.00     0.089 C 
HETATM    5  C5  UNL     1     -31.086   6.993   2.874  1.00 20.00     0.016 C 
HETATM    6  C6  UNL     1     -32.036   8.242   2.823  1.00 20.00     0.030 C 
HETATM    7  C7  UNL     1     -31.864   6.510   1.609  1.00 20.00     0.002 C 
HETATM    8  C8  UNL     1     -32.021   8.048   1.243  1.00 20.00    -0.036 C 
HETATM    9  C9  UNL     1     -30.801   8.669   0.535  1.00 20.00     0.016 C 
HETATM   10  C10 UNL     1     -33.273   8.456   0.458  1.00 20.00     0.016 C 
HETATM   11  O11 UNL     1     -35.002   6.161   3.553  1.00 20.00    -0.293 OA
ENDROOT
TORSDOF 0
