REMARK  1 active torsions:
REMARK  status: ('A' for Active; 'I' for Inactive)
REMARK    1  A    between atoms: C4_4  and  C6_6 
REMARK       I    between atoms: C4_4  and  N8_8 
ROOT
HETATM    1  C1  UNL     1     -35.199   6.656   4.521  1.00 20.00     0.135 A 
HETATM    2  C2  UNL     1     -34.658   5.924   3.490  1.00 20.00     0.120 A 
HETATM    3  C3  UNL     1     -33.546   7.789   3.820  1.00 20.00     0.216 A 
HETATM    4  C4  UNL     1     -32.698   6.355   1.996  1.00 20.00     0.228 C 
HETATM    5  N7  UNL     1     -34.502   7.814   4.721  1.00 20.00    -0.254 NA
HETATM    6  N8  UNL     1     -33.585   6.656   3.033  1.00 20.00    -0.286 N 
HETATM    7  O9  UNL     1     -32.840   5.313   1.372  1.00 20.00    -0.273 OA
ENDROOT
BRANCH   4   8
HETATM    8  C6  UNL     1     -31.625   7.370   1.745  1.00 20.00     0.099 C 
HETATM    9  C5  UNL     1     -32.084   8.374   0.711  1.00 20.00     0.014 C 
ENDBRANCH   4   8
TORSDOF 1
