REMARK  1 active torsions:
REMARK  status: ('A' for Active; 'I' for Inactive)
REMARK    1  A    between atoms: C3_3  and  N6_6 
ROOT
HETATM    1  C1  UNL     1     -33.064   8.817   3.032  1.00 20.00     0.123 C 
HETATM    2  C2  UNL     1     -31.702   7.107   1.589  1.00 20.00     0.123 C 
HETATM    3  C3  UNL     1     -32.226   8.549   1.763  1.00 20.00     0.242 C 
HETATM    4  S7  UNL     1     -34.633   7.890   3.145  1.00 20.00    -0.084 SA
HETATM    5  S8  UNL     1     -32.988   5.824   1.402  1.00 20.00    -0.084 SA
HETATM    6  S9  UNL     1     -33.903   5.982   3.224  1.00 20.00    -0.025 SA
ENDROOT
BRANCH   3   7
HETATM    7  N6  UNL     1     -32.946   8.988   0.563  1.00 20.00     0.086 N 
HETATM    8  C4  UNL     1     -32.144   8.729  -0.628  1.00 20.00     0.310 C 
HETATM    9  C5  UNL     1     -33.278  10.406   0.666  1.00 20.00     0.310 C 
ENDBRANCH   3   7
TORSDOF 1
