REMARK  2 active torsions:
REMARK  status: ('A' for Active; 'I' for Inactive)
REMARK    1  A    between atoms: C2_2  and  C4_4 
REMARK    2  A    between atoms: C4_4  and  O5_5 
ROOT
HETATM    1  C1  UNL     1     -32.796   6.839   4.172  1.00 20.00     0.052 A 
HETATM    2  C2  UNL     1     -33.910   6.423   3.251  1.00 20.00     0.051 A 
HETATM    3  C3  UNL     1     -33.226   7.757   3.055  1.00 20.00     0.119 A 
HETATM    4 CL6  UNL     1     -34.046   9.253   3.484  1.00 20.00    -0.101 Cl
HETATM    5 CL7  UNL     1     -32.147   7.928   1.670  1.00 20.00    -0.101 Cl
ENDROOT
BRANCH   2   6
HETATM    6  C4  UNL     1     -35.300   6.297   3.775  1.00 20.00     0.172 C 
BRANCH   6   7
HETATM    7  O5  UNL     1     -35.454   5.047   4.446  1.00 20.00    -0.400 OA
HETATM    8  H13 UNL     1     -36.369   5.018   4.764  1.00 20.00     0.209 HD
ENDBRANCH   6   7
ENDBRANCH   2   6
TORSDOF 2
