REMARK  1 active torsions:
REMARK  status: ('A' for Active; 'I' for Inactive)
REMARK    1  A    between atoms: C11_11  and  C12_12 
ROOT
HETATM    1  C1  UNL     1     -32.407   9.337   0.004  1.00 20.00     0.059 C 
HETATM    2  C12 UNL     1     -31.996   7.940   0.011  1.00 20.00     0.133 C 
HETATM    3  N13 UNL     1     -32.718  10.455  -0.033  1.00 20.00    -0.197 NA
ENDROOT
BRANCH   2   4
HETATM    4  C11 UNL     1     -32.552   7.396   1.329  1.00 20.00    -0.027 C 
HETATM    5  C5  UNL     1     -34.091   7.542   1.364  1.00 20.00     0.015 C 
HETATM    6  C8  UNL     1     -34.653   6.996   2.688  1.00 20.00    -0.013 C 
HETATM    7  C2  UNL     1     -34.279   5.510   2.823  1.00 20.00     0.009 C 
HETATM    8  C3  UNL     1     -34.041   7.781   3.860  1.00 20.00     0.009 C 
HETATM    9  C9  UNL     1     -32.750   5.349   2.810  1.00 20.00    -0.013 C 
HETATM   10  C4  UNL     1     -32.147   6.142   3.982  1.00 20.00     0.009 C 
HETATM   11  C6  UNL     1     -32.193   5.899   1.486  1.00 20.00     0.015 C 
HETATM   12  C10 UNL     1     -32.511   7.631   3.853  1.00 20.00    -0.013 C 
HETATM   13  C7  UNL     1     -31.954   8.175   2.526  1.00 20.00     0.015 C 
ENDBRANCH   2   4
TORSDOF 1
