REMARK  1 active torsions:
REMARK  status: ('A' for Active; 'I' for Inactive)
REMARK    1  A    between atoms: C1_1  and  C10_10 
ROOT
HETATM    1  C2  UNL     1     -34.103   6.411   3.054  1.00 20.00     0.009 C 
HETATM    2  C3  UNL     1     -32.142   7.894   3.622  1.00 20.00     0.010 C 
HETATM    3  C4  UNL     1     -31.898   6.191   1.848  1.00 20.00     0.010 C 
HETATM    4  C5  UNL     1     -33.914   8.856   2.456  1.00 20.00     0.022 C 
HETATM    5  C6  UNL     1     -33.672   7.152   0.679  1.00 20.00     0.022 C 
HETATM    6  C7  UNL     1     -33.668   7.820   3.555  1.00 20.00    -0.013 C 
HETATM    7  C8  UNL     1     -33.414   6.045   1.705  1.00 20.00    -0.013 C 
HETATM    8  C9  UNL     1     -31.777   7.695   2.143  1.00 20.00     0.002 C 
HETATM    9  C10 UNL     1     -32.976   8.336   1.359  1.00 20.00     0.024 C 
ENDROOT
BRANCH   9  10
HETATM   10  C1  UNL     1     -32.561   9.408   0.405  1.00 20.00     0.132 C 
HETATM   11  C11 UNL     1     -31.640   9.000  -0.713  1.00 20.00     0.091 C 
HETATM   12  O12 UNL     1     -32.954  10.567   0.527  1.00 20.00    -0.298 OA
ENDBRANCH   9  10
TORSDOF 1
