REMARK  2 active torsions:
REMARK  status: ('A' for Active; 'I' for Inactive)
REMARK    1  A    between atoms: C3_3  and  C10_10 
REMARK    2  A    between atoms: C5_5  and  C10_10 
ROOT
HETATM    1  C1  UNL     1     -33.761   5.144   2.576  1.00 20.00    -0.023 C 
HETATM    2  C2  UNL     1     -34.355   6.065   3.348  1.00 20.00    -0.079 C 
HETATM    3  C4  UNL     1     -32.549   5.684   1.893  1.00 20.00     0.033 C 
HETATM    4  C5  UNL     1     -32.250   6.942   2.719  1.00 20.00     0.007 C 
HETATM    5  C6  UNL     1     -33.627   7.397   3.292  1.00 20.00    -0.021 C 
HETATM    6  C7  UNL     1     -35.605   5.859   4.132  1.00 20.00     0.044 C 
HETATM    7  C8  UNL     1     -33.440   8.035   4.676  1.00 20.00     0.020 C 
HETATM    8  C9  UNL     1     -34.385   8.371   2.376  1.00 20.00     0.020 C 
ENDROOT
BRANCH   4   9
HETATM    9  C10 UNL     1     -31.465   7.982   1.930  1.00 20.00     0.075 C 
BRANCH   9  10
HETATM   10  C3  UNL     1     -32.229   8.500   0.740  1.00 20.00     0.231 C 
HETATM   11  O11 UNL     1     -32.522   9.675   0.549  1.00 20.00    -0.307 OA
ENDBRANCH   9  10
ENDBRANCH   4   9
TORSDOF 2
