REMARK  0 active torsions:
REMARK  status: ('A' for Active; 'I' for Inactive)
ROOT
HETATM    1  C1  UNL     1     -32.800   7.042   2.077  1.00 20.00    -0.080 C 
HETATM    2  C2  UNL     1     -31.727   7.801   1.838  1.00 20.00     0.015 C 
HETATM    3  C3  UNL     1     -33.217   5.855   1.235  1.00 20.00     0.039 C 
HETATM    4  C4  UNL     1     -35.579   6.464   1.731  1.00 20.00     0.007 C 
HETATM    5  C5  UNL     1     -35.107   7.666   2.575  1.00 20.00     0.015 C 
HETATM    6  C6  UNL     1     -34.484   5.402   1.997  1.00 20.00    -0.002 C 
HETATM    7  C7  UNL     1     -33.802   7.142   3.233  1.00 20.00    -0.014 C 
HETATM    8  C8  UNL     1     -34.116   5.637   3.488  1.00 20.00    -0.033 C 
HETATM    9  C9  UNL     1     -33.377   7.954   4.445  1.00 20.00     0.021 C 
HETATM   10  C10 UNL     1     -35.278   5.359   4.464  1.00 20.00     0.016 C 
HETATM   11  C11 UNL     1     -32.922   4.794   3.988  1.00 20.00     0.016 C 
ENDROOT
TORSDOF 0
