REMARK  2 active torsions:
REMARK  status: ('A' for Active; 'I' for Inactive)
REMARK    1  A    between atoms: C1_1  and  C7_7 
REMARK    2  A    between atoms: C7_7  and  S10_10 
ROOT
HETATM    1  C1  UNL     1     -33.468   5.880   2.415  1.00 20.00     0.009 A 
HETATM    2  C2  UNL     1     -33.371   7.026   3.222  1.00 20.00     0.068 A 
HETATM    3  C3  UNL     1     -32.586   6.123   1.396  1.00 20.00     0.084 A 
HETATM    4  C4  UNL     1     -34.097   7.323   4.468  1.00 20.00     0.073 C 
HETATM    5  C5  UNL     1     -32.171   5.371   0.205  1.00 20.00     0.079 C 
HETATM    6  N8  UNL     1     -32.496   7.913   2.741  1.00 20.00    -0.133 NA
HETATM    7  O9  UNL     1     -31.999   7.333   1.579  1.00 20.00    -0.217 OA
ENDROOT
BRANCH   1   8
HETATM    8  C7  UNL     1     -34.335   4.668   2.616  1.00 20.00     0.116 C 
BRANCH   8   9
HETATM    9  S10 UNL     1     -34.616   4.313   4.367  1.00 20.00    -0.169 SA
HETATM   10  C6  UNL     1     -33.050   3.484   4.729  1.00 20.00     0.090 C 
ENDBRANCH   8   9
ENDBRANCH   1   8
TORSDOF 2
