REMARK  2 active torsions:
REMARK  status: ('A' for Active; 'I' for Inactive)
REMARK    1  A    between atoms: C3_3  and  C9_9 
REMARK    2  A    between atoms: C4_4  and  C10_10 
ROOT
HETATM    1  C1  UNL     1     -31.027   8.565   0.932  1.00 20.00     0.009 A 
HETATM    2  C2  UNL     1     -31.205   7.625   1.857  1.00 20.00     0.009 A 
HETATM    3  C3  UNL     1     -32.347   9.061   0.445  1.00 20.00     0.076 A 
HETATM    4  C4  UNL     1     -32.662   7.398   2.083  1.00 20.00     0.076 A 
HETATM    5  C5  UNL     1     -32.548   8.776  -1.041  1.00 20.00     0.050 C 
HETATM    6  C6  UNL     1     -33.078   5.976   1.717  1.00 20.00     0.050 C 
HETATM    7  O11 UNL     1     -33.338   8.311   1.186  1.00 20.00    -0.362 OA
ENDROOT
BRANCH   3   8
HETATM    8  C9  UNL     1     -32.544  10.544   0.752  1.00 20.00     0.037 C 
HETATM    9  C7  UNL     1     -31.493  11.386   0.107  1.00 20.00     0.008 C 
ENDBRANCH   3   8
BRANCH   4  10
HETATM   10  C10 UNL     1     -33.075   7.742   3.512  1.00 20.00     0.037 C 
HETATM   11  C8  UNL     1     -34.534   7.513   3.736  1.00 20.00     0.008 C 
ENDBRANCH   4  10
TORSDOF 2
