REMARK  1 active torsions:
REMARK  status: ('A' for Active; 'I' for Inactive)
REMARK    1  A    between atoms: C4_4  and  C7_7 
ROOT
HETATM    1  C1  UNL     1     -33.571   5.303   2.502  1.00 20.00     0.015 A 
HETATM    2  C2  UNL     1     -32.808   5.815   1.451  1.00 20.00     0.008 A 
HETATM    3  C3  UNL     1     -33.946   7.541   3.381  1.00 20.00     0.022 A 
HETATM    4  C4  UNL     1     -34.136   6.160   3.460  1.00 20.00     0.002 A 
HETATM    5  C5  UNL     1     -32.636   7.187   1.372  1.00 20.00    -0.052 A 
HETATM    6  C6  UNL     1     -33.199   8.041   2.328  1.00 20.00    -0.051 A 
HETATM    7  C8  UNL     1     -31.838   7.960   0.370  1.00 20.00     0.039 C 
HETATM    8  C9  UNL     1     -32.828   9.464   2.054  1.00 20.00     0.039 C 
HETATM    9  C10 UNL     1     -32.385   9.379   0.586  1.00 20.00     0.009 C 
ENDROOT
BRANCH   4  10
HETATM   10  C7  UNL     1     -34.920   5.602   4.551  1.00 20.00     0.269 C 
HETATM   11  O11 UNL     1     -35.123   4.392   4.685  1.00 20.00    -0.301 OA
ENDBRANCH   4  10
TORSDOF 1
