REMARK  1 active torsions:
REMARK  status: ('A' for Active; 'I' for Inactive)
REMARK    1  A    between atoms: C5_5  and  C7_7 
ROOT
HETATM    1  C1  UNL     1     -32.044   5.985   1.403  1.00 20.00     0.010 C 
HETATM    2  C2  UNL     1     -33.468   6.186   2.007  1.00 20.00    -0.004 A 
HETATM    3  C3  UNL     1     -31.482   7.434   1.526  1.00 20.00    -0.004 A 
HETATM    4  C4  UNL     1     -33.377   7.281   3.052  1.00 20.00    -0.000 A 
HETATM    5  C5  UNL     1     -33.909   7.603   1.691  1.00 20.00    -0.000 A 
HETATM    6  C6  UNL     1     -32.116   8.074   2.747  1.00 20.00    -0.000 A 
HETATM    7  C7  UNL     1     -32.647   8.396   1.386  1.00 20.00    -0.000 A 
ENDROOT
TORSDOF 1
