REMARK  2 active torsions:
REMARK  status: ('A' for Active; 'I' for Inactive)
REMARK    1  A    between atoms: C1_1  and  C6_6 
REMARK    2  A    between atoms: C7_7  and  C9_9 
ROOT
HETATM    1  C2  UNL     1     -33.787   8.036   2.461  1.00 20.00     0.015 C 
HETATM    2  C3  UNL     1     -32.071   6.403   1.589  1.00 20.00     0.015 C 
HETATM    3  C4  UNL     1     -34.150   7.061   3.580  1.00 20.00     0.005 C 
HETATM    4  C5  UNL     1     -32.432   5.424   2.706  1.00 20.00     0.005 C 
HETATM    5  C6  UNL     1     -32.345   7.842   2.008  1.00 20.00     0.087 C 
HETATM    6  C7  UNL     1     -33.884   5.606   3.170  1.00 20.00    -0.015 C 
ENDROOT
BRANCH   5   7
HETATM    7  C1  UNL     1     -32.122   8.724   0.794  1.00 20.00     0.177 C 
HETATM    8  O10 UNL     1     -32.818   9.776   0.757  1.00 20.00    -0.648 OA
HETATM    9  O11 UNL     1     -31.264   8.290  -0.026  1.00 20.00    -0.648 OA
ENDBRANCH   5   7
BRANCH   6  10
HETATM   10  C9  UNL     1     -34.205   4.654   4.321  1.00 20.00     0.000 C 
HETATM   11  C8  UNL     1     -33.993   3.228   3.934  1.00 20.00     0.005 C 
ENDBRANCH   6  10
TORSDOF 2
