REMARK  2 active torsions:
REMARK  status: ('A' for Active; 'I' for Inactive)
REMARK    1  A    between atoms: C2_2  and  C4_4 
REMARK    2  A    between atoms: C3_3  and  C4_4 
ROOT
HETATM    1  C4  UNL     1     -32.986   6.986   2.184  1.00 20.00     0.127 C 
HETATM    2 CL7  UNL     1     -32.199   5.515   1.537  1.00 20.00    -0.121 Cl
ENDROOT
BRANCH   1   3
HETATM    3  C2  UNL     1     -33.705   6.655   3.486  1.00 20.00     0.164 A 
HETATM    4  C1  UNL     1     -35.185   6.393   3.513  1.00 20.00     0.201 A 
HETATM    5  O5  UNL     1     -34.632   7.653   3.925  1.00 20.00    -0.380 OA
ENDBRANCH   1   3
BRANCH   1   6
HETATM    6  C3  UNL     1     -31.974   8.127   2.310  1.00 20.00     0.137 C 
HETATM    7 CL6  UNL     1     -31.134   8.511   0.786  1.00 20.00    -0.129 Cl
ENDBRANCH   1   6
TORSDOF 2
