REMARK  1 active torsions:
REMARK  status: ('A' for Active; 'I' for Inactive)
REMARK    1  A    between atoms: C3_3  and  C8_8 
ROOT
HETATM    1  C1  UNL     1     -31.912   6.135   2.020  1.00 20.00    -0.026 C 
HETATM    2  C2  UNL     1     -33.200   6.189   1.653  1.00 20.00    -0.025 C 
HETATM    3  C4  UNL     1     -32.410   8.358   1.630  1.00 20.00     0.017 C 
HETATM    4  C5  UNL     1     -32.264   7.686   3.910  1.00 20.00     0.021 C 
HETATM    5  C6  UNL     1     -31.543   7.497   2.555  1.00 20.00     0.009 C 
HETATM    6  C7  UNL     1     -33.695   7.588   1.956  1.00 20.00     0.019 C 
HETATM    7  C8  UNL     1     -33.759   7.789   3.489  1.00 20.00     0.055 C 
ENDROOT
BRANCH   7   8
HETATM    8  C3  UNL     1     -34.635   6.794   4.184  1.00 20.00     0.236 C 
HETATM    9  O9  UNL     1     -35.641   6.308   3.678  1.00 20.00    -0.306 OA
ENDBRANCH   7   8
TORSDOF 1
