REMARK  2 active torsions:
REMARK  status: ('A' for Active; 'I' for Inactive)
REMARK    1  A    between atoms: C1_1  and  C2_2 
REMARK    2  A    between atoms: C1_1  and  C3_3 
ROOT
HETATM    1  C1  UNL     1     -33.526   5.982   2.886  1.00 20.00     0.168 C 
HETATM    2  O4  UNL     1     -32.996   5.235   2.065  1.00 20.00    -0.294 OA
ENDROOT
BRANCH   1   3
HETATM    3  C2  UNL     1     -34.525   5.447   3.880  1.00 20.00     0.301 C 
HETATM    4  F5  UNL     1     -35.430   6.400   4.231  1.00 20.00    -0.248 F 
ENDBRANCH   1   3
BRANCH   1   5
HETATM    5  C3  UNL     1     -33.237   7.463   2.980  1.00 20.00     0.195 C 
HETATM    6 CL6  UNL     1     -32.040   7.945   1.769  1.00 20.00    -0.122 Cl
ENDBRANCH   1   5
TORSDOF 2
