REMARK  0 active torsions:
REMARK  status: ('A' for Active; 'I' for Inactive)
ROOT
HETATM    1  C1  UNL     1     -32.668   6.158   1.973  1.00 20.00    -0.017 C 
HETATM    2  C2  UNL     1     -33.732   5.872   2.985  1.00 20.00     0.159 C 
HETATM    3  C3  UNL     1     -32.016   5.251   1.250  1.00 20.00     0.023 C 
HETATM    4  C4  UNL     1     -31.982   8.125   3.318  1.00 20.00     0.010 C 
HETATM    5  C5  UNL     1     -33.090   7.796   4.351  1.00 20.00     0.013 C 
HETATM    6  C6  UNL     1     -34.065   8.024   2.184  1.00 20.00     0.022 C 
HETATM    7  C7  UNL     1     -32.587   7.668   1.975  1.00 20.00     0.022 C 
HETATM    8  C8  UNL     1     -34.216   7.218   3.481  1.00 20.00     0.061 C 
HETATM    9  O9  UNL     1     -34.094   4.774   3.364  1.00 20.00    -0.292 OA
ENDROOT
TORSDOF 0
