REMARK  2 active torsions:
REMARK  status: ('A' for Active; 'I' for Inactive)
REMARK    1  A    between atoms: C2_2  and  C4_4 
REMARK    2  A    between atoms: C3_3  and  C4_4 
ROOT
HETATM    1  C4  UNL     1     -32.287   7.764   1.713  1.00 20.00     0.127 C 
HETATM    2 CL7  UNL     1     -31.492   6.187   1.421  1.00 20.00    -0.121 Cl
ENDROOT
BRANCH   1   3
HETATM    3  C2  UNL     1     -33.633   7.541   2.391  1.00 20.00     0.164 A 
HETATM    4  C1  UNL     1     -33.952   6.245   3.083  1.00 20.00     0.201 A 
HETATM    5  O5  UNL     1     -33.568   7.419   3.816  1.00 20.00    -0.380 OA
ENDBRANCH   1   3
BRANCH   1   6
HETATM    6  C3  UNL     1     -32.377   8.579   0.422  1.00 20.00     0.137 C 
HETATM    7 CL6  UNL     1     -32.501  10.336   0.691  1.00 20.00    -0.129 Cl
ENDBRANCH   1   6
TORSDOF 2
