REMARK  1 active torsions:
REMARK  status: ('A' for Active; 'I' for Inactive)
REMARK    1  A    between atoms: C4_4  and  C12_12 
ROOT
HETATM    1  C1  UNL     1     -32.851   5.367   2.136  1.00 20.00     0.005 C 
HETATM    2  C2  UNL     1     -31.766   5.807   1.485  1.00 20.00     0.001 C 
HETATM    3  C3  UNL     1     -33.319   7.533   3.118  1.00 20.00    -0.012 C 
HETATM    4  C4  UNL     1     -33.702   6.264   2.893  1.00 20.00    -0.058 C 
HETATM    5  C5  UNL     1     -32.172   9.057   0.506  1.00 20.00     0.004 C 
HETATM    6  C6  UNL     1     -32.172   9.453   1.948  1.00 20.00     0.065 C 
HETATM    7  C7  UNL     1     -32.012   8.095   2.611  1.00 20.00     0.042 C 
HETATM    8  C8  UNL     1     -31.347   7.249   1.504  1.00 20.00     0.138 C 
HETATM    9  C9  UNL     1     -32.627  10.016  -0.544  1.00 20.00     0.065 C 
HETATM   10  N13 UNL     1     -31.729   7.874   0.216  1.00 20.00    -0.289 NA
ENDROOT
BRANCH   4  11
HETATM   11  C12 UNL     1     -34.986   5.699   3.418  1.00 20.00     0.010 C 
HETATM   12  C10 UNL     1     -34.706   4.507   4.329  1.00 20.00     0.015 C 
HETATM   13  C11 UNL     1     -35.789   6.768   4.154  1.00 20.00     0.015 C 
ENDBRANCH   4  11
TORSDOF 1
