REMARK  2 active torsions:
REMARK  status: ('A' for Active; 'I' for Inactive)
REMARK    1  A    between atoms: C1_1  and  C2_2 
REMARK    2  A    between atoms: C2_2  and  C3_3 
ROOT
HETATM    1  C1  UNL     1     -34.079   6.979   3.696  1.00 20.00     0.173 C 
HETATM    2  O4  UNL     1     -35.202   6.699   4.207  1.00 20.00    -0.648 OA
HETATM    3  O5  UNL     1     -33.181   7.760   4.116  1.00 20.00    -0.648 OA
ENDROOT
BRANCH   1   4
HETATM    4  C2  UNL     1     -33.783   6.239   2.386  1.00 20.00     0.128 C 
BRANCH   4   5
HETATM    5  C3  UNL     1     -32.404   6.444   1.780  1.00 20.00     0.125 C 
HETATM    6 CL6  UNL     1     -32.131   8.156   1.371  1.00 20.00    -0.130 Cl
ENDBRANCH   4   5
ENDBRANCH   1   4
TORSDOF 2
