REMARK  0 active torsions:
REMARK  status: ('A' for Active; 'I' for Inactive)
ROOT
HETATM    1  C1  UNL     1     -31.743   7.694   2.188  1.00 20.00    -0.018 C 
HETATM    2  C2  UNL     1     -31.714   6.393   1.851  1.00 20.00    -0.025 C 
HETATM    3  C3  UNL     1     -33.762   7.369   3.403  1.00 20.00     0.135 C 
HETATM    4  C4  UNL     1     -33.825   5.880   3.062  1.00 20.00     0.087 C 
HETATM    5  C5  UNL     1     -33.737   7.235   1.096  1.00 20.00     0.025 C 
HETATM    6  C6  UNL     1     -33.184   8.124   2.214  1.00 20.00     0.078 C 
HETATM    7  C7  UNL     1     -33.149   5.939   1.671  1.00 20.00     0.016 C 
HETATM    8  O8  UNL     1     -34.081   7.863   4.473  1.00 20.00    -0.297 OA
ENDROOT
TORSDOF 0
