REMARK  1 active torsions:
REMARK  status: ('A' for Active; 'I' for Inactive)
REMARK    1  A    between atoms: C8_8  and  O9_9 
ROOT
HETATM    1  C1  UNL     1     -32.282  10.243  -0.056  1.00 20.00     0.015 C 
HETATM    2  C2  UNL     1     -32.410   9.364   0.752  1.00 20.00    -0.079 C 
HETATM    3  C3  UNL     1     -34.344   6.613   3.440  1.00 20.00     0.000 C 
HETATM    4  C4  UNL     1     -33.511   7.739   4.045  1.00 20.00     0.004 C 
HETATM    5  C5  UNL     1     -33.692   6.044   2.184  1.00 20.00     0.004 C 
HETATM    6  C6  UNL     1     -33.219   8.837   3.020  1.00 20.00     0.051 C 
HETATM    7  C7  UNL     1     -33.404   7.138   1.155  1.00 20.00     0.051 C 
HETATM    8  C8  UNL     1     -32.567   8.285   1.743  1.00 20.00     0.120 C 
ENDROOT
BRANCH   8   9
HETATM    9  O9  UNL     1     -31.272   7.789   2.090  1.00 20.00    -0.378 OA
HETATM   10  H21 UNL     1     -30.877   7.459   1.269  1.00 20.00     0.211 HD
ENDBRANCH   8   9
TORSDOF 1
