REMARK  0 active torsions:
REMARK  status: ('A' for Active; 'I' for Inactive)
ROOT
HETATM    1  C1  UNL     1     -33.410   6.104   2.484  1.00 20.00     0.118 C 
HETATM    2  C2  UNL     1     -35.005   5.306   4.173  1.00 20.00     0.118 C 
HETATM    3  C3  UNL     1     -34.537   6.430   3.359  1.00 20.00     0.288 C 
HETATM    4  N4  UNL     1     -32.516   5.844   1.791  1.00 20.00    -0.193 NA
HETATM    5  N5  UNL     1     -35.375   4.415   4.818  1.00 20.00    -0.193 NA
HETATM    6 CL6  UNL     1     -34.034   7.740   4.453  1.00 20.00    -0.069 Cl
HETATM    7 CL7  UNL     1     -35.890   6.985   2.343  1.00 20.00    -0.069 Cl
ENDROOT
TORSDOF 0
