REMARK  4 active torsions:
REMARK  status: ('A' for Active; 'I' for Inactive)
REMARK    1  A    between atoms: C1_1  and  C7_7 
REMARK    2  A    between atoms: C1_1  and  C8_8 
REMARK    3  A    between atoms: C7_7  and  C9_9 
REMARK    4  A    between atoms: C8_8  and  C10_10 
ROOT
HETATM    1  C1  UNL     1     -32.212   7.855   1.806  1.00 20.00     0.131 C 
HETATM    2  O11 UNL     1     -31.270   8.571   2.145  1.00 20.00    -0.298 OA
ENDROOT
BRANCH   1   3
HETATM    3  C7  UNL     1     -33.148   8.244   0.669  1.00 20.00     0.082 C 
BRANCH   3   4
HETATM    4  C9  UNL     1     -32.750   9.553  -0.028  1.00 20.00    -0.016 C 
HETATM    5  C3  UNL     1     -32.749  10.728   0.954  1.00 20.00     0.010 C 
HETATM    6  C4  UNL     1     -31.367   9.407  -0.664  1.00 20.00     0.010 C 
ENDBRANCH   3   4
ENDBRANCH   1   3
BRANCH   1   7
HETATM    7  C8  UNL     1     -32.526   6.541   2.527  1.00 20.00     0.054 C 
HETATM    8  C2  UNL     1     -32.356   5.357   1.574  1.00 20.00     0.018 C 
BRANCH   7   9
HETATM    9  C10 UNL     1     -33.911   6.625   3.214  1.00 20.00    -0.012 C 
HETATM   10  C5  UNL     1     -33.977   7.800   4.194  1.00 20.00     0.010 C 
HETATM   11  C6  UNL     1     -34.322   5.334   3.928  1.00 20.00     0.010 C 
ENDBRANCH   7   9
ENDBRANCH   1   7
TORSDOF 4
