REMARK  1 active torsions:
REMARK  status: ('A' for Active; 'I' for Inactive)
REMARK    1  A    between atoms: C3_3  and  C6_6 
ROOT
HETATM    1  C1  UNL     1     -32.852   5.800   1.856  1.00 20.00     0.100 C 
HETATM    2  C2  UNL     1     -34.166   6.884   3.766  1.00 20.00     0.169 A 
HETATM    3  C3  UNL     1     -33.220   6.977   2.586  1.00 20.00     0.174 A 
HETATM    4  C4  UNL     1     -34.755   5.604   4.246  1.00 20.00     0.044 C 
HETATM    5  N7  UNL     1     -32.554   4.847   1.265  1.00 20.00    -0.194 NA
HETATM    6  O8  UNL     1     -34.617   7.295   2.471  1.00 20.00    -0.354 OA
ENDROOT
BRANCH   3   7
HETATM    7  C6  UNL     1     -32.326   8.168   2.461  1.00 20.00     0.052 C 
HETATM    8  C5  UNL     1     -32.292   8.729   1.064  1.00 20.00     0.009 C 
ENDBRANCH   3   7
TORSDOF 1
