REMARK  1 active torsions:
REMARK  status: ('A' for Active; 'I' for Inactive)
REMARK    1  A    between atoms: C6_6  and  C10_10 
ROOT
HETATM    1  C1  UNL     1     -35.124   4.942   4.170  1.00 20.00     0.053 A 
HETATM    2  C2  UNL     1     -33.902   4.388   4.088  1.00 20.00    -0.075 A 
HETATM    3  C3  UNL     1     -35.051   6.230   3.443  1.00 20.00     0.159 A 
HETATM    4  C4  UNL     1     -33.087   5.510   1.908  1.00 20.00     0.029 A 
HETATM    5  C5  UNL     1     -32.893   5.179   3.361  1.00 20.00     0.032 A 
HETATM    6  C6  UNL     1     -33.649   6.445   2.955  1.00 20.00     0.035 A 
HETATM    7  C7  UNL     1     -33.528   3.067   4.667  1.00 20.00     0.044 C 
HETATM    8  O11 UNL     1     -35.974   7.004   3.262  1.00 20.00    -0.292 OA
ENDROOT
BRANCH   6   9
HETATM    9  C10 UNL     1     -32.991   7.779   3.150  1.00 20.00    -0.006 C 
HETATM   10  C8  UNL     1     -32.927   8.164   4.636  1.00 20.00     0.011 C 
HETATM   11  C9  UNL     1     -31.576   7.803   2.551  1.00 20.00     0.011 C 
ENDBRANCH   6   9
TORSDOF 1
