REMARK  2 active torsions:
REMARK  status: ('A' for Active; 'I' for Inactive)
REMARK    1  A    between atoms: C2_2  and  C3_3 
REMARK    2  A    between atoms: N9_9  and  N10_10 
ROOT
HETATM    1  C1  UNL     1     -34.995   6.365   4.057  1.00 20.00    -0.018 C 
HETATM    2  C2  UNL     1     -33.850   6.487   3.375  1.00 20.00    -0.043 C 
HETATM    3  C5  UNL     1     -35.158   4.991   4.618  1.00 20.00     0.028 C 
HETATM    4  C6  UNL     1     -33.066   5.214   3.374  1.00 20.00     0.040 C 
HETATM    5  C7  UNL     1     -34.087   4.193   3.878  1.00 20.00     0.008 C 
ENDROOT
BRANCH   2   6
HETATM    6  C3  UNL     1     -33.374   7.668   2.727  1.00 20.00     0.147 C 
HETATM    7  N9  UNL     1     -32.248   7.719   2.080  1.00 20.00    -0.163 NA
BRANCH   7   8
HETATM    8  N10 UNL     1     -32.031   8.986   1.551  1.00 20.00    -0.168 NA
HETATM    9  C4  UNL     1     -32.530   9.071   0.363  1.00 20.00     0.109 C 
HETATM   10  C8  UNL     1     -32.424  10.341  -0.421  1.00 20.00     0.059 C 
ENDBRANCH   7   8
ENDBRANCH   2   6
TORSDOF 2
