REMARK  0 active torsions:
REMARK  status: ('A' for Active; 'I' for Inactive)
ROOT
HETATM    1  C1  UNL     1     -33.795   6.906   2.921  1.00 20.00     0.128 C 
HETATM    2  C2  UNL     1     -33.666   8.122   2.033  1.00 20.00     0.087 C 
HETATM    3  C3  UNL     1     -33.091   5.635   2.500  1.00 20.00     0.087 C 
HETATM    4  C4  UNL     1     -32.191   6.804   0.403  1.00 20.00     0.018 C 
HETATM    5  C5  UNL     1     -32.371   8.122   1.206  1.00 20.00    -0.041 C 
HETATM    6  C6  UNL     1     -32.890   5.541   0.980  1.00 20.00    -0.041 C 
HETATM    7  C7  UNL     1     -32.421   9.305   0.216  1.00 20.00     0.015 C 
HETATM    8  C8  UNL     1     -31.154   8.353   2.129  1.00 20.00     0.015 C 
HETATM    9  C9  UNL     1     -34.250   5.319   0.280  1.00 20.00     0.015 C 
HETATM   10  C10 UNL     1     -32.017   4.306   0.677  1.00 20.00     0.015 C 
HETATM   11  O11 UNL     1     -34.455   6.948   3.960  1.00 20.00    -0.298 OA
ENDROOT
TORSDOF 0
