REMARK  0 active torsions:
REMARK  status: ('A' for Active; 'I' for Inactive)
ROOT
HETATM    1  C1  UNL     1     -31.576   7.388   1.863  1.00 20.00    -0.021 C 
HETATM    2  C2  UNL     1     -31.803   6.161   1.352  1.00 20.00    -0.021 C 
HETATM    3  C3  UNL     1     -33.537   7.136   3.339  1.00 20.00    -0.021 C 
HETATM    4  C4  UNL     1     -33.764   5.909   2.828  1.00 20.00    -0.021 C 
HETATM    5  C5  UNL     1     -33.731   7.379   1.060  1.00 20.00     0.024 C 
HETATM    6  C6  UNL     1     -32.929   7.974   2.227  1.00 20.00     0.031 C 
HETATM    7  C7  UNL     1     -33.305   5.939   1.381  1.00 20.00     0.031 C 
ENDROOT
TORSDOF 0
