REMARK  0 active torsions:
REMARK  status: ('A' for Active; 'I' for Inactive)
ROOT
HETATM    1  C1  UNL     1     -35.064   7.213   4.217  1.00 20.00    -0.029 C 
HETATM    2  C2  UNL     1     -35.106   6.008   3.641  1.00 20.00    -0.023 C 
HETATM    3  C3  UNL     1     -32.651   7.211   2.114  1.00 20.00     0.264 C 
HETATM    4  C4  UNL     1     -33.662   7.703   4.378  1.00 20.00     0.042 C 
HETATM    5  C5  UNL     1     -33.508   5.089   1.904  1.00 20.00     0.188 C 
HETATM    6  C6  UNL     1     -33.732   5.487   3.343  1.00 20.00     0.046 C 
HETATM    7  C7  UNL     1     -32.857   6.719   3.528  1.00 20.00     0.098 C 
HETATM    8  O8  UNL     1     -32.167   8.288   1.800  1.00 20.00    -0.265 OA
HETATM    9  O9  UNL     1     -33.077   6.271   1.221  1.00 20.00    -0.320 OA
ENDROOT
TORSDOF 0
