REMARK  1 active torsions:
REMARK  status: ('A' for Active; 'I' for Inactive)
REMARK    1  A    between atoms: C6_6  and  C9_9 
ROOT
HETATM    1  C1  UNL     1     -33.529   6.320   3.113  1.00 20.00     0.127 C 
HETATM    2  C2  UNL     1     -33.522   7.782   3.497  1.00 20.00     0.079 C 
HETATM    3  C3  UNL     1     -32.998   5.975   1.740  1.00 20.00     0.079 C 
HETATM    4  C4  UNL     1     -32.161   8.408   3.218  1.00 20.00     0.012 C 
HETATM    5  C5  UNL     1     -31.648   6.640   1.500  1.00 20.00     0.012 C 
HETATM    6  C6  UNL     1     -31.654   8.148   1.792  1.00 20.00    -0.010 C 
HETATM    7  O10 UNL     1     -34.041   5.468   3.837  1.00 20.00    -0.298 OA
ENDROOT
BRANCH   6   8
HETATM    8  C9  UNL     1     -32.454   8.930   0.748  1.00 20.00    -0.019 C 
HETATM    9  C7  UNL     1     -32.381  10.429   1.028  1.00 20.00     0.010 C 
HETATM   10  C8  UNL     1     -31.947   8.621  -0.659  1.00 20.00     0.010 C 
ENDBRANCH   6   8
TORSDOF 1
