REMARK  2 active torsions:
REMARK  status: ('A' for Active; 'I' for Inactive)
REMARK    1  A    between atoms: C2_2  and  C4_4 
REMARK    2  A    between atoms: C5_5  and  C9_9 
ROOT
HETATM    1  C1  UNL     1     -33.033   5.198   2.381  1.00 20.00    -0.016 C 
HETATM    2  C2  UNL     1     -33.848   5.627   3.355  1.00 20.00    -0.024 C 
HETATM    3  C6  UNL     1     -32.344   6.135   1.429  1.00 20.00     0.036 C 
HETATM    4  C7  UNL     1     -34.188   7.068   3.583  1.00 20.00     0.042 C 
HETATM    5  C8  UNL     1     -33.802   7.961   2.398  1.00 20.00     0.014 C 
HETATM    6  C9  UNL     1     -32.404   7.607   1.872  1.00 20.00     0.017 C 
ENDROOT
BRANCH   6   7
HETATM    7  C5  UNL     1     -32.003   8.511   0.747  1.00 20.00    -0.089 C 
HETATM    8  C3  UNL     1     -31.159   8.113  -0.216  1.00 20.00     0.014 C 
HETATM    9  C10 UNL     1     -32.601   9.887   0.758  1.00 20.00     0.043 C 
ENDBRANCH   6   7
BRANCH   2  10
HETATM   10  C4  UNL     1     -34.457   4.620   4.228  1.00 20.00     0.265 C 
HETATM   11  O11 UNL     1     -35.214   4.913   5.145  1.00 20.00    -0.302 OA
ENDBRANCH   2  10
TORSDOF 2
