REMARK  1 active torsions:
REMARK  status: ('A' for Active; 'I' for Inactive)
REMARK    1  A    between atoms: C1_1  and  C5_5 
ROOT
HETATM    1  C2  UNL     1     -34.020   4.987   4.535  1.00 20.00     0.022 C 
HETATM    2  C3  UNL     1     -33.525   7.447   4.475  1.00 20.00     0.022 C 
HETATM    3  C4  UNL     1     -35.680   6.578   3.526  1.00 20.00     0.022 C 
HETATM    4  C5  UNL     1     -34.192   6.282   3.736  1.00 20.00     0.002 C 
ENDROOT
BRANCH   4   5
HETATM    5  C1  UNL     1     -33.556   6.076   2.366  1.00 20.00     0.239 C 
HETATM    6  O6  UNL     1     -32.629   6.744   1.920  1.00 20.00    -0.306 OA
ENDBRANCH   4   5
TORSDOF 1
