REMARK  1 active torsions:
REMARK  status: ('A' for Active; 'I' for Inactive)
REMARK    1  A    between atoms: C3_3  and  C6_6 
ROOT
HETATM    1  C1  UNL     1     -34.720   5.686   3.888  1.00 20.00    -0.030 C 
HETATM    2  C2  UNL     1     -34.383   6.938   4.218  1.00 20.00    -0.026 C 
HETATM    3  C4  UNL     1     -34.075   4.932   2.769  1.00 20.00     0.031 C 
HETATM    4  C5  UNL     1     -33.294   7.720   3.528  1.00 20.00     0.014 C 
HETATM    5  C6  UNL     1     -32.439   6.855   2.567  1.00 20.00     0.058 C 
HETATM    6  C7  UNL     1     -33.301   5.836   1.793  1.00 20.00    -0.004 C 
HETATM    7  C8  UNL     1     -32.404   8.398   4.578  1.00 20.00     0.015 C 
HETATM    8  C9  UNL     1     -32.466   4.965   0.848  1.00 20.00     0.011 C 
ENDROOT
BRANCH   5   9
HETATM    9  C3  UNL     1     -31.737   7.772   1.605  1.00 20.00     0.236 C 
HETATM   10  O10 UNL     1     -32.326   8.513   0.825  1.00 20.00    -0.306 OA
ENDBRANCH   5   9
TORSDOF 1
