REMARK  1 active torsions:
REMARK  status: ('A' for Active; 'I' for Inactive)
REMARK    1  A    between atoms: C1_1  and  C3_3 
ROOT
HETATM    1  C1  UNL     1     -32.293   8.410   1.387  1.00 20.00     0.000 C 
HETATM    2  C2  UNL     1     -32.548   9.609   0.855  1.00 20.00     0.081 C 
HETATM    3 CL4  UNL     1     -32.938   9.834  -0.797  1.00 20.00    -0.097 Cl
ENDROOT
BRANCH   1   4
HETATM    4  C3  UNL     1     -31.961   8.207   2.828  1.00 20.00     0.142 C 
HETATM    5 CL5  UNL     1     -33.449   7.933   3.759  1.00 20.00    -0.126 Cl
ENDBRANCH   1   4
TORSDOF 1
