REMARK  1 active torsions:
REMARK  status: ('A' for Active; 'I' for Inactive)
REMARK    1  A    between atoms: C1_1  and  C6_6 
ROOT
HETATM    1  C3  UNL     1     -32.501   5.206   1.482  1.00 20.00     0.022 C 
HETATM    2  C4  UNL     1     -32.390   7.619   2.185  1.00 20.00     0.022 C 
HETATM    3  C5  UNL     1     -34.400   6.757   0.986  1.00 20.00     0.022 C 
HETATM    4  C6  UNL     1     -33.306   6.401   2.008  1.00 20.00     0.009 C 
ENDROOT
BRANCH   4   5
HETATM    5  C1  UNL     1     -33.961   6.010   3.346  1.00 20.00     0.130 C 
HETATM    6  C2  UNL     1     -33.724   4.619   3.885  1.00 20.00     0.091 C 
HETATM    7  O7  UNL     1     -34.683   6.791   3.971  1.00 20.00    -0.298 OA
ENDBRANCH   4   5
TORSDOF 1
