REMARK  1 active torsions:
REMARK  status: ('A' for Active; 'I' for Inactive)
REMARK    1  A    between atoms: C3_3  and  C4_4 
ROOT
HETATM    1  C1  UNL     1     -31.552   7.654   1.405  1.00 20.00     0.033 C 
HETATM    2  C2  UNL     1     -32.472   5.328   1.668  1.00 20.00     0.033 C 
HETATM    3  C4  UNL     1     -32.776   6.823   1.807  1.00 20.00     0.042 C 
HETATM    4 CL6  UNL     1     -34.105   7.218   0.646  1.00 20.00    -0.119 Cl
ENDROOT
BRANCH   3   5
HETATM    5  C3  UNL     1     -33.284   7.183   3.214  1.00 20.00     0.139 C 
HETATM    6 CL5  UNL     1     -34.711   6.242   3.720  1.00 20.00    -0.129 Cl
ENDBRANCH   3   5
TORSDOF 1
