REMARK  1 active torsions:
REMARK  status: ('A' for Active; 'I' for Inactive)
REMARK    1  A    between atoms: C5_5  and  S6_6 
ROOT
HETATM    1  C1  UNL     1     -35.413   7.132   2.402  1.00 20.00     0.026 C 
HETATM    2  C2  UNL     1     -35.038   5.267   4.044  1.00 20.00     0.026 C 
HETATM    3  C3  UNL     1     -33.819   7.448   4.321  1.00 20.00     0.026 C 
HETATM    4  C5  UNL     1     -34.391   6.447   3.313  1.00 20.00    -0.003 C 
ENDROOT
BRANCH   4   5
HETATM    5  S6  UNL     1     -33.019   5.804   2.279  1.00 20.00    -0.165 SA
HETATM    6  C4  UNL     1     -32.487   7.378   1.574  1.00 20.00     0.090 C 
ENDBRANCH   4   5
TORSDOF 1
