REMARK  3 active torsions:
REMARK  status: ('A' for Active; 'I' for Inactive)
REMARK    1  A    between atoms: C2_2  and  C8_8 
REMARK    2  A    between atoms: C4_4  and  C7_7 
REMARK    3  A    between atoms: C7_7  and  C8_8 
ROOT
HETATM    1  C7  UNL     1     -34.605   5.545   3.878  1.00 20.00     0.034 C 
ENDROOT
BRANCH   1   2
HETATM    2  C4  UNL     1     -33.816   4.265   3.843  1.00 20.00    -0.030 C 
HETATM    3  C3  UNL     1     -33.765   3.392   4.859  1.00 20.00    -0.035 C 
HETATM    4  C5  UNL     1     -32.983   2.121   4.823  1.00 20.00     0.035 C 
ENDBRANCH   1   2
BRANCH   1   5
HETATM    5  C8  UNL     1     -33.721   6.795   3.702  1.00 20.00     0.007 C 
HETATM    6  C6  UNL     1     -34.443   8.029   4.249  1.00 20.00     0.014 C 
BRANCH   5   7
HETATM    7  C2  UNL     1     -33.368   7.023   2.252  1.00 20.00    -0.032 C 
HETATM    8  C1  UNL     1     -32.115   7.054   1.783  1.00 20.00     0.007 C 
ENDBRANCH   5   7
ENDBRANCH   1   5
TORSDOF 3
