REMARK  3 active torsions:
REMARK  status: ('A' for Active; 'I' for Inactive)
REMARK    1  A    between atoms: C3_3  and  C8_8 
REMARK    2  A    between atoms: C6_6  and  C7_7 
REMARK    3  A    between atoms: C7_7  and  C8_8 
ROOT
HETATM    1  C5  UNL     1     -32.986   5.925   1.230  1.00 20.00     0.010 C 
HETATM    2  C8  UNL     1     -33.127   7.175   2.100  1.00 20.00    -0.014 C 
ENDROOT
BRANCH   2   3
HETATM    3  C3  UNL     1     -33.731   6.795   3.454  1.00 20.00    -0.011 A 
HETATM    4  C1  UNL     1     -34.432   7.831   4.289  1.00 20.00     0.005 A 
HETATM    5  C2  UNL     1     -35.223   6.737   3.628  1.00 20.00     0.005 A 
ENDBRANCH   2   3
BRANCH   2   6
HETATM    6  C7  UNL     1     -31.785   7.900   2.312  1.00 20.00     0.004 C 
BRANCH   6   7
HETATM    7  C6  UNL     1     -31.138   8.377   1.009  1.00 20.00    -0.004 C 
HETATM    8  C4  UNL     1     -32.069   9.296   0.232  1.00 20.00     0.005 C 
ENDBRANCH   6   7
ENDBRANCH   2   6
TORSDOF 3
