REMARK  2 active torsions:
REMARK  status: ('A' for Active; 'I' for Inactive)
REMARK    1  A    between atoms: C1_1  and  C3_3 
REMARK    2  A    between atoms: C2_2  and  C3_3 
ROOT
HETATM    1  C3  UNL     1     -33.137   6.461   2.132  1.00 20.00     0.109 C 
HETATM    2 CL6  UNL     1     -31.680   5.723   1.383  1.00 20.00    -0.123 Cl
ENDROOT
BRANCH   1   3
HETATM    3  C1  UNL     1     -32.844   7.914   2.521  1.00 20.00     0.135 C 
HETATM    4 CL4  UNL     1     -32.308   8.923   1.155  1.00 20.00    -0.129 Cl
ENDBRANCH   1   3
BRANCH   1   5
HETATM    5  C2  UNL     1     -33.617   5.553   3.266  1.00 20.00     0.135 C 
HETATM    6 CL5  UNL     1     -35.151   6.122   3.968  1.00 20.00    -0.129 Cl
ENDBRANCH   1   5
TORSDOF 2
