REMARK  2 active torsions:
REMARK  status: ('A' for Active; 'I' for Inactive)
REMARK    1  A    between atoms: C3_3  and  C4_4 
REMARK    2  A    between atoms: C4_4  and  S6_6 
ROOT
HETATM    1  C1  UNL     1     -34.426   4.783   4.246  1.00 20.00     0.133 C 
HETATM    2  N5  UNL     1     -33.995   3.731   4.479  1.00 20.00    -0.184 NA
HETATM    3  S6  UNL     1     -35.062   6.311   3.907  1.00 20.00    -0.046 SA
ENDROOT
BRANCH   3   4
HETATM    4  C4  UNL     1     -33.499   7.214   3.717  1.00 20.00     0.135 C 
BRANCH   4   5
HETATM    5  C3  UNL     1     -32.926   7.013   2.345  1.00 20.00    -0.011 C 
HETATM    6  C2  UNL     1     -32.599   5.807   1.860  1.00 20.00     0.027 C 
HETATM    7 BR7  UNL     1     -32.599   8.575   1.360  1.00 20.00    -0.056 Br
ENDBRANCH   4   5
ENDBRANCH   3   4
TORSDOF 2
