REMARK  2 active torsions:
REMARK  status: ('A' for Active; 'I' for Inactive)
REMARK    1  A    between atoms: C1_1  and  C3_3 
REMARK    2  A    between atoms: C2_2  and  C4_4 
ROOT
HETATM    1  C1  UNL     1     -32.650   7.417   2.298  1.00 20.00    -0.015 C 
HETATM    2  C2  UNL     1     -33.567   6.466   2.526  1.00 20.00    -0.015 C 
ENDROOT
BRANCH   1   3
HETATM    3  C3  UNL     1     -32.048   7.682   0.957  1.00 20.00     0.141 C 
HETATM    4 CL5  UNL     1     -32.394   9.351   0.458  1.00 20.00    -0.126 Cl
ENDBRANCH   1   3
BRANCH   2   5
HETATM    5  C4  UNL     1     -34.155   6.188   3.870  1.00 20.00     0.141 C 
HETATM    6 CL6  UNL     1     -35.919   6.392   3.812  1.00 20.00    -0.126 Cl
ENDBRANCH   2   5
TORSDOF 2
