REMARK  3 active torsions:
REMARK  status: ('A' for Active; 'I' for Inactive)
REMARK    1  A    between atoms: C1_1  and  S7_7 
REMARK    2  A    between atoms: C1_1  and  S8_8 
REMARK    3  A    between atoms: C5_5  and  S8_8 
ROOT
HETATM    1  S8  UNL     1     -33.577   7.621   0.837  1.00 20.00    -0.103 SA
ENDROOT
BRANCH   1   2
HETATM    2  C1  UNL     1     -33.084   6.384   1.980  1.00 20.00     0.102 C 
HETATM    3  S6  UNL     1     -33.740   6.247   3.513  1.00 20.00    -0.065 SA
BRANCH   2   4
HETATM    4  S7  UNL     1     -31.896   5.248   1.358  1.00 20.00    -0.124 SA
HETATM    5  H18 UNL     1     -31.832   4.468   2.447  1.00 20.00     0.108 HD
ENDBRANCH   2   4
ENDBRANCH   1   2
BRANCH   1   6
HETATM    6  C5  UNL     1     -32.372   8.923   1.305  1.00 20.00     0.003 C 
HETATM    7  C2  UNL     1     -31.097   8.250   1.821  1.00 20.00     0.026 C 
HETATM    8  C3  UNL     1     -32.064   9.764   0.063  1.00 20.00     0.026 C 
HETATM    9  C4  UNL     1     -32.994   9.797   2.398  1.00 20.00     0.026 C 
ENDBRANCH   1   6
TORSDOF 3
