REMARK  1 active torsions:
REMARK  status: ('A' for Active; 'I' for Inactive)
REMARK    1  A    between atoms: C1_1  and  C2_2 
ROOT
HETATM    1  C1  UNL     1     -32.544   7.187   2.218  1.00 20.00    -0.005 C 
HETATM    2  C3  UNL     1     -33.767   7.166   2.768  1.00 20.00    -0.031 C 
HETATM    3  C5  UNL     1     -34.156   6.256   3.886  1.00 20.00     0.036 C 
ENDROOT
BRANCH   1   4
HETATM    4  C2  UNL     1     -32.179   8.072   1.135  1.00 20.00    -0.005 C 
HETATM    5  C4  UNL     1     -32.583   9.349   1.064  1.00 20.00    -0.031 C 
HETATM    6  C6  UNL     1     -32.214  10.273  -0.049  1.00 20.00     0.036 C 
ENDBRANCH   1   4
TORSDOF 1
