REMARK  1 active torsions:
REMARK  status: ('A' for Active; 'I' for Inactive)
REMARK    1  A    between atoms: C7_7  and  C8_8 
ROOT
HETATM    1  C1  UNL     1     -32.453   8.915   1.075  1.00 20.00     0.064 C 
HETATM    2  C2  UNL     1     -32.985   5.889   1.205  1.00 20.00     0.002 C 
HETATM    3  C3  UNL     1     -31.697   6.621   1.594  1.00 20.00     0.019 C 
HETATM    4  C4  UNL     1     -34.192   6.261   2.069  1.00 20.00     0.005 C 
HETATM    5  C5  UNL     1     -32.894   8.020   3.351  1.00 20.00     0.024 C 
HETATM    6  C6  UNL     1     -31.942   8.029   2.140  1.00 20.00     0.093 C 
HETATM    7  C7  UNL     1     -33.773   6.758   3.454  1.00 20.00    -0.003 C 
HETATM    8  N9  UNL     1     -32.854   9.612   0.238  1.00 20.00    -0.197 NA
ENDROOT
BRANCH   7   9
HETATM    9  C8  UNL     1     -34.991   7.019   4.338  1.00 20.00     0.089 C 
HETATM   10 BR10 UNL     1     -35.661   5.334   5.026  1.00 20.00    -0.096 Br
ENDBRANCH   7   9
TORSDOF 1
