REMARK  0 active torsions:
REMARK  status: ('A' for Active; 'I' for Inactive)
ROOT
HETATM    1  C1  UNL     1     -33.532   7.275   3.132  1.00 20.00     0.111 C 
HETATM    2  C2  UNL     1     -32.058   8.223   1.477  1.00 20.00     0.049 C 
HETATM    3  C3  UNL     1     -32.664   7.160   2.016  1.00 20.00     0.104 C 
HETATM    4  N4  UNL     1     -34.242   7.367   4.045  1.00 20.00    -0.190 NA
HETATM    5 CL5  UNL     1     -32.411   5.580   1.370  1.00 20.00    -0.073 Cl
ENDROOT
TORSDOF 0
