REMARK  2 active torsions:
REMARK  status: ('A' for Active; 'I' for Inactive)
REMARK    1  A    between atoms: C1_1  and  C6_6 
REMARK    2  A    between atoms: C1_1  and  C7_7 
ROOT
HETATM    1  C1  UNL     1     -33.012   6.442   2.055  1.00 20.00     0.135 C 
HETATM    2  O8  UNL     1     -32.738   5.286   1.735  1.00 20.00    -0.297 OA
ENDROOT
BRANCH   1   3
HETATM    3  C6  UNL     1     -34.304   6.788   2.657  1.00 20.00     0.056 A 
HETATM    4  C2  UNL     1     -34.756   6.071   3.900  1.00 20.00     0.013 A 
HETATM    5  C3  UNL     1     -34.332   7.507   3.979  1.00 20.00     0.013 A 
ENDBRANCH   1   3
BRANCH   1   6
HETATM    6  C7  UNL     1     -32.036   7.569   1.851  1.00 20.00     0.056 A 
HETATM    7  C4  UNL     1     -31.499   7.791   0.483  1.00 20.00     0.013 A 
HETATM    8  C5  UNL     1     -32.488   8.752   1.071  1.00 20.00     0.013 A 
ENDBRANCH   1   6
TORSDOF 2
