REMARK  4 active torsions:
REMARK  status: ('A' for Active; 'I' for Inactive)
REMARK    1  A    between atoms: C1_1  and  C9_9 
REMARK    2  A    between atoms: C2_2  and  C7_7 
REMARK    3  A    between atoms: C2_2  and  C9_9 
REMARK    4  A    between atoms: C7_7  and  C8_8 
ROOT
HETATM    1  C5  UNL     1     -34.480   7.965   3.325  1.00 20.00     0.031 C 
HETATM    2  C6  UNL     1     -32.369   7.252   4.460  1.00 20.00     0.031 C 
HETATM    3  C9  UNL     1     -33.433   6.848   3.425  1.00 20.00     0.073 C 
ENDROOT
BRANCH   3   4
HETATM    4  C1  UNL     1     -34.050   5.520   3.899  1.00 20.00     0.138 C 
HETATM    5  C3  UNL     1     -33.155   4.312   4.033  1.00 20.00     0.092 C 
HETATM    6  O10 UNL     1     -35.257   5.421   4.133  1.00 20.00    -0.297 OA
ENDBRANCH   3   4
BRANCH   3   7
HETATM    7  C2  UNL     1     -32.762   6.683   2.041  1.00 20.00     0.142 C 
HETATM    8  O11 UNL     1     -32.758   5.602   1.449  1.00 20.00    -0.297 OA
BRANCH   7   9
HETATM    9  C7  UNL     1     -32.085   7.911   1.440  1.00 20.00     0.079 C 
BRANCH   9  10
HETATM   10  C8  UNL     1     -33.021   8.764   0.586  1.00 20.00     0.003 C 
HETATM   11  C4  UNL     1     -32.309   9.946  -0.057  1.00 20.00     0.005 C 
ENDBRANCH   9  10
ENDBRANCH   7   9
ENDBRANCH   3   7
TORSDOF 4
