REMARK  0 active torsions:
REMARK  status: ('A' for Active; 'I' for Inactive)
ROOT
HETATM    1  C1  UNL     1     -33.860   6.393   3.216  1.00 20.00     0.282 C 
HETATM    2  C2  UNL     1     -33.261   7.783   3.197  1.00 20.00     0.278 C 
HETATM    3  C3  UNL     1     -32.343   5.861   1.398  1.00 20.00     0.205 C 
HETATM    4  C4  UNL     1     -31.520   7.044   1.841  1.00 20.00     0.195 C 
HETATM    5  O5  UNL     1     -34.787   6.106   3.970  1.00 20.00    -0.263 OA
HETATM    6  O6  UNL     1     -33.280   5.465   2.417  1.00 20.00    -0.318 OA
HETATM    7  O7  UNL     1     -32.428   8.103   2.105  1.00 20.00    -0.379 OA
ENDROOT
TORSDOF 0
