REMARK  0 active torsions:
REMARK  status: ('A' for Active; 'I' for Inactive)
ROOT
HETATM    1  C1  UNL     1     -34.999   4.550   4.708  1.00 20.00     0.047 C 
HETATM    2  C2  UNL     1     -35.313   5.773   4.267  1.00 20.00    -0.013 C 
HETATM    3  C3  UNL     1     -32.007   7.673   2.217  1.00 20.00    -0.030 C 
HETATM    4  C4  UNL     1     -32.507   8.214   3.334  1.00 20.00    -0.030 C 
HETATM    5  C5  UNL     1     -33.733   3.906   4.286  1.00 20.00     0.149 C 
HETATM    6  C6  UNL     1     -32.558   6.431   1.584  1.00 20.00     0.033 C 
HETATM    7  C7  UNL     1     -33.683   7.647   4.074  1.00 20.00     0.040 C 
HETATM    8  C8  UNL     1     -32.778   4.693   3.417  1.00 20.00     0.088 C 
HETATM    9  C9  UNL     1     -33.537   5.645   2.480  1.00 20.00     0.008 C 
HETATM   10  C10 UNL     1     -34.488   6.581   3.281  1.00 20.00    -0.019 C 
HETATM   11  C11 UNL     1     -35.463   7.280   2.306  1.00 20.00     0.020 C 
HETATM   12  O12 UNL     1     -33.455   2.781   4.696  1.00 20.00    -0.293 OA
ENDROOT
TORSDOF 0
