REMARK  1 active torsions:
REMARK  status: ('A' for Active; 'I' for Inactive)
REMARK    1  A    between atoms: C7_7  and  O12_12 
ROOT
HETATM    1  C1  UNL     1     -32.296  10.282   0.075  1.00 20.00     0.015 C 
HETATM    2  C2  UNL     1     -32.374   9.374   0.857  1.00 20.00    -0.079 C 
HETATM    3  C3  UNL     1     -32.274   6.918   1.081  1.00 20.00     0.055 C 
HETATM    4  C4  UNL     1     -33.195   5.904   3.218  1.00 20.00     0.013 C 
HETATM    5  C5  UNL     1     -33.818   8.306   2.555  1.00 20.00     0.060 C 
HETATM    6  C6  UNL     1     -33.056   5.742   1.701  1.00 20.00    -0.014 C 
HETATM    7  C7  UNL     1     -32.470   8.259   1.817  1.00 20.00     0.121 C 
HETATM    8  C8  UNL     1     -34.013   7.165   3.594  1.00 20.00    -0.044 C 
HETATM    9  C9  UNL     1     -32.396   4.410   1.348  1.00 20.00     0.010 C 
HETATM   10  C10 UNL     1     -35.515   6.812   3.652  1.00 20.00     0.015 C 
HETATM   11  C11 UNL     1     -33.597   7.631   5.003  1.00 20.00     0.015 C 
ENDROOT
BRANCH   7  12
HETATM   12  O12 UNL     1     -31.408   8.396   2.764  1.00 20.00    -0.378 OA
HETATM   13  H30 UNL     1     -30.586   8.360   2.255  1.00 20.00     0.211 HD
ENDBRANCH   7  12
TORSDOF 1
