REMARK  1 active torsions:
REMARK  status: ('A' for Active; 'I' for Inactive)
REMARK    1  A    between atoms: C7_7  and  C8_8 
ROOT
HETATM    1  C1  UNL     1     -35.244   7.276   2.682  1.00 20.00     0.015 C 
HETATM    2  C2  UNL     1     -34.021   5.428   3.809  1.00 20.00     0.015 C 
HETATM    3  C3  UNL     1     -33.390   7.791   4.255  1.00 20.00     0.015 C 
HETATM    4  C7  UNL     1     -33.840   6.814   3.143  1.00 20.00    -0.045 C 
ENDROOT
BRANCH   4   5
HETATM    5  C8  UNL     1     -32.800   6.765   1.932  1.00 20.00    -0.045 C 
HETATM    6  C4  UNL     1     -32.620   8.150   1.266  1.00 20.00     0.015 C 
HETATM    7  C5  UNL     1     -33.251   5.787   0.820  1.00 20.00     0.015 C 
HETATM    8  C6  UNL     1     -31.396   6.303   2.392  1.00 20.00     0.015 C 
ENDBRANCH   4   5
TORSDOF 1
