REMARK  3 active torsions:
REMARK  status: ('A' for Active; 'I' for Inactive)
REMARK    1  A    between atoms: C1_1  and  C7_7 
REMARK    2  A    between atoms: C1_1  and  C9_9 
REMARK    3  A    between atoms: C7_7  and  C8_8 
ROOT
HETATM    1  C1  UNL     1     -33.498   6.445   2.384  1.00 20.00     0.134 C 
HETATM    2  O10 UNL     1     -33.010   5.402   1.944  1.00 20.00    -0.297 OA
ENDROOT
BRANCH   1   3
HETATM    3  C7  UNL     1     -33.583   7.696   1.512  1.00 20.00     0.083 C 
BRANCH   3   4
HETATM    4  C8  UNL     1     -32.211   8.224   1.063  1.00 20.00    -0.016 C 
HETATM    5  C2  UNL     1     -31.363   8.583   2.284  1.00 20.00     0.010 C 
HETATM    6  C3  UNL     1     -32.356   9.448   0.155  1.00 20.00     0.010 C 
ENDBRANCH   3   4
ENDBRANCH   1   3
BRANCH   1   7
HETATM    7  C9  UNL     1     -34.030   6.533   3.830  1.00 20.00     0.009 C 
HETATM    8  C4  UNL     1     -34.565   7.952   4.095  1.00 20.00     0.022 C 
HETATM    9  C5  UNL     1     -35.175   5.535   4.048  1.00 20.00     0.022 C 
HETATM   10  C6  UNL     1     -32.879   6.247   4.802  1.00 20.00     0.022 C 
ENDBRANCH   1   7
TORSDOF 3
