REMARK  2 active torsions:
REMARK  status: ('A' for Active; 'I' for Inactive)
REMARK    1  A    between atoms: C6_6  and  C11_11 
REMARK    2  A    between atoms: C11_11  and  O12_12 
ROOT
HETATM    1  C1  UNL     1     -33.208   5.168   2.462  1.00 20.00    -0.024 C 
HETATM    2  C2  UNL     1     -33.949   5.335   3.570  1.00 20.00    -0.087 C 
HETATM    3  C3  UNL     1     -32.665   6.304   1.645  1.00 20.00     0.035 C 
HETATM    4  C4  UNL     1     -34.275   6.703   4.114  1.00 20.00     0.034 C 
HETATM    5  C5  UNL     1     -33.442   7.828   3.491  1.00 20.00     0.012 C 
HETATM    6  C6  UNL     1     -33.321   7.655   1.974  1.00 20.00     0.023 C 
HETATM    7  C7  UNL     1     -34.502   4.170   4.337  1.00 20.00     0.043 C 
ENDROOT
BRANCH   6   8
HETATM    8  C11 UNL     1     -32.537   8.805   1.348  1.00 20.00     0.057 C 
HETATM    9  C8  UNL     1     -31.114   8.851   1.902  1.00 20.00     0.046 C 
HETATM   10  C9  UNL     1     -33.246  10.139   1.579  1.00 20.00     0.046 C 
BRANCH   8  11
HETATM   11  O12 UNL     1     -32.442   8.579  -0.059  1.00 20.00    -0.385 OA
HETATM   12  C10 UNL     1     -31.721   9.619  -0.700  1.00 20.00     0.202 C 
ENDBRANCH   8  11
ENDBRANCH   6   8
TORSDOF 2
