REMARK  1 active torsions:
REMARK  status: ('A' for Active; 'I' for Inactive)
REMARK    1  A    between atoms: C8_8  and  O10_10 
ROOT
HETATM    1  C1  UNL     1     -33.180   5.932   0.668  1.00 20.00     0.005 C 
HETATM    2  C2  UNL     1     -31.406   7.325   1.760  1.00 20.00     0.005 C 
HETATM    3  C3  UNL     1     -34.148   7.118   0.779  1.00 20.00     0.008 C 
HETATM    4  C4  UNL     1     -32.401   8.488   1.877  1.00 20.00     0.008 C 
HETATM    5  C5  UNL     1     -32.886   5.865   3.157  1.00 20.00     0.042 C 
HETATM    6  C6  UNL     1     -32.147   5.976   1.807  1.00 20.00    -0.012 C 
HETATM    7  C7  UNL     1     -33.831   7.940   2.048  1.00 20.00     0.019 C 
HETATM    8  C8  UNL     1     -33.905   7.021   3.300  1.00 20.00     0.058 C 
HETATM    9  C9  UNL     1     -33.693   7.783   4.611  1.00 20.00     0.046 C 
ENDROOT
BRANCH   8  10
HETATM   10  O10 UNL     1     -35.215   6.444   3.371  1.00 20.00    -0.390 OA
HETATM   11  H26 UNL     1     -35.213   5.867   4.147  1.00 20.00     0.210 HD
ENDBRANCH   8  10
TORSDOF 1
