REMARK  0 active torsions:
REMARK  status: ('A' for Active; 'I' for Inactive)
ROOT
HETATM    1  C1  UNL     1     -32.700   9.564   0.569  1.00 20.00     0.064 C 
HETATM    2  C2  UNL     1     -33.898   6.211   3.010  1.00 20.00     0.005 C 
HETATM    3  C3  UNL     1     -32.042   6.016   1.346  1.00 20.00     0.005 C 
HETATM    4  C4  UNL     1     -33.164   7.386   3.674  1.00 20.00     0.006 C 
HETATM    5  C5  UNL     1     -31.331   7.210   1.997  1.00 20.00     0.006 C 
HETATM    6  C6  UNL     1     -34.014   7.464   0.843  1.00 20.00     0.024 C 
HETATM    7  C7  UNL     1     -33.355   8.671   1.542  1.00 20.00     0.097 C 
HETATM    8  C8  UNL     1     -33.565   6.150   1.510  1.00 20.00    -0.013 C 
HETATM    9  C9  UNL     1     -32.363   8.173   2.619  1.00 20.00     0.003 C 
HETATM   10  N10 UNL     1     -32.184  10.266  -0.196  1.00 20.00    -0.197 NA
ENDROOT
TORSDOF 0
