REMARK  3 active torsions:
REMARK  status: ('A' for Active; 'I' for Inactive)
REMARK    1  A    between atoms: C5_5  and  C7_7 
REMARK    2  A    between atoms: C6_6  and  C8_8 
REMARK    3  A    between atoms: C7_7  and  C8_8 
ROOT
HETATM    1  C1  UNL     1     -32.476   9.932   0.632  1.00 20.00     0.012 C 
HETATM    2  C3  UNL     1     -32.451   8.951   1.323  1.00 20.00    -0.117 C 
HETATM    3  C5  UNL     1     -32.417   7.752   2.173  1.00 20.00     0.093 C 
ENDROOT
BRANCH   3   4
HETATM    4  C7  UNL     1     -32.857   6.494   1.420  1.00 20.00     0.013 C 
BRANCH   4   5
HETATM    5  C8  UNL     1     -32.750   5.223   2.274  1.00 20.00     0.013 C 
BRANCH   5   6
HETATM    6  C6  UNL     1     -33.669   5.253   3.497  1.00 20.00     0.093 C 
HETATM    7  C4  UNL     1     -33.616   4.001   4.266  1.00 20.00    -0.117 C 
HETATM    8  C2  UNL     1     -33.576   2.979   4.895  1.00 20.00     0.012 C 
ENDBRANCH   5   6
ENDBRANCH   4   5
ENDBRANCH   3   4
TORSDOF 3
