REMARK  3 active torsions:
REMARK  status: ('A' for Active; 'I' for Inactive)
REMARK    1  A    between atoms: C2_2  and  C6_6 
REMARK    2  A    between atoms: C2_2  and  C7_7 
REMARK    3  A    between atoms: C6_6  and  C8_8 
ROOT
HETATM    1  C6  UNL     1     -33.970   6.645   2.260  1.00 20.00     0.042 C 
ENDROOT
BRANCH   1   2
HETATM    2  C2  UNL     1     -32.576   6.858   1.704  1.00 20.00    -0.075 C 
HETATM    3  C1  UNL     1     -31.875   5.841   1.176  1.00 20.00     0.015 C 
BRANCH   2   4
HETATM    4  C7  UNL     1     -31.970   8.231   1.808  1.00 20.00     0.147 C 
HETATM    5 CL9  UNL     1     -32.329   9.184   0.349  1.00 20.00    -0.126 Cl
ENDBRANCH   2   4
ENDBRANCH   1   2
BRANCH   1   6
HETATM    6  C8  UNL     1     -34.093   6.199   3.747  1.00 20.00    -0.048 C 
HETATM    7  C3  UNL     1     -35.560   5.955   4.141  1.00 20.00     0.015 C 
HETATM    8  C4  UNL     1     -33.322   4.872   3.909  1.00 20.00     0.015 C 
HETATM    9  C5  UNL     1     -33.483   7.231   4.708  1.00 20.00     0.015 C 
ENDBRANCH   1   6
TORSDOF 3
