REMARK  4 active torsions:
REMARK  status: ('A' for Active; 'I' for Inactive)
REMARK    1  A    between atoms: C2_2  and  C5_5 
REMARK    2  A    between atoms: C4_4  and  C6_6 
REMARK    3  A    between atoms: C5_5  and  O8_8 
REMARK    4  A    between atoms: C6_6  and  O8_8 
ROOT
HETATM    1  O8  UNL     1     -32.790   7.724   2.376  1.00 20.00    -0.383 OA
ENDROOT
BRANCH   1   2
HETATM    2  C5  UNL     1     -33.747   6.691   2.180  1.00 20.00     0.218 C 
BRANCH   2   3
HETATM    3  C2  UNL     1     -34.383   6.343   3.487  1.00 20.00     0.026 C 
HETATM    4  C1  UNL     1     -35.076   7.206   4.239  1.00 20.00     0.034 C 
HETATM    5 CL9  UNL     1     -34.141   4.719   4.037  1.00 20.00    -0.088 Cl
ENDBRANCH   2   3
ENDBRANCH   1   2
BRANCH   1   6
HETATM    6  C6  UNL     1     -32.158   8.088   1.157  1.00 20.00     0.202 C 
BRANCH   6   7
HETATM    7  C4  UNL     1     -33.073   9.014   0.384  1.00 20.00     0.169 A 
HETATM    8  C3  UNL     1     -33.176  10.473   0.729  1.00 20.00     0.202 A 
HETATM    9  O7  UNL     1     -32.397  10.013  -0.386  1.00 20.00    -0.379 OA
ENDBRANCH   6   7
ENDBRANCH   1   6
TORSDOF 4
