REMARK  2 active torsions:
REMARK  status: ('A' for Active; 'I' for Inactive)
REMARK    1  A    between atoms: C3_3  and  C5_5 
REMARK    2  A    between atoms: C5_5  and  N6_6 
ROOT
HETATM    1  C1  UNL     1     -33.419   7.566   3.144  1.00 20.00     0.157 C 
HETATM    2  N6  UNL     1     -32.376   8.011   2.836  1.00 20.00    -0.271 NA
HETATM    3  S7  UNL     1     -34.826   6.967   3.589  1.00 20.00    -0.055 SA
ENDROOT
BRANCH   2   4
HETATM    4  C5  UNL     1     -32.152   8.115   1.393  1.00 20.00     0.183 C 
BRANCH   4   5
HETATM    5  C3  UNL     1     -32.570   9.474   0.902  1.00 20.00    -0.073 C 
HETATM    6  C2  UNL     1     -33.081  10.395   1.734  1.00 20.00     0.015 C 
HETATM    7  C4  UNL     1     -32.417   9.740  -0.567  1.00 20.00     0.044 C 
ENDBRANCH   4   5
ENDBRANCH   2   4
TORSDOF 2
