REMARK  0 active torsions:
REMARK  status: ('A' for Active; 'I' for Inactive)
ROOT
HETATM    1  C1  UNL     1     -34.289   6.842   3.661  1.00 20.00     0.064 C 
HETATM    2  C2  UNL     1     -31.618   6.027   1.344  1.00 20.00     0.005 C 
HETATM    3  C3  UNL     1     -33.119   6.022   1.022  1.00 20.00     0.006 C 
HETATM    4  C4  UNL     1     -31.990   7.716   3.152  1.00 20.00     0.024 C 
HETATM    5  C5  UNL     1     -32.318   8.247   0.846  1.00 20.00     0.010 C 
HETATM    6  C6  UNL     1     -33.499   7.769   2.846  1.00 20.00     0.097 C 
HETATM    7  C7  UNL     1     -31.362   7.483   1.764  1.00 20.00    -0.013 C 
HETATM    8  C8  UNL     1     -33.547   7.472   1.330  1.00 20.00     0.003 C 
HETATM    9  N9  UNL     1     -34.914   6.108   4.307  1.00 20.00    -0.197 NA
ENDROOT
TORSDOF 0
