REMARK  2 active torsions:
REMARK  status: ('A' for Active; 'I' for Inactive)
REMARK    1  A    between atoms: C1_1  and  C3_3 
REMARK    2  A    between atoms: C1_1  and  O5_5 
ROOT
HETATM    1  C1  UNL     1     -33.075   6.896   2.523  1.00 20.00     0.291 C 
HETATM    2  O4  UNL     1     -32.407   7.902   2.724  1.00 20.00    -0.262 OA
ENDROOT
BRANCH   1   3
HETATM    3  C3  UNL     1     -34.274   6.470   3.328  1.00 20.00     0.277 C 
HETATM    4 CL6  UNL     1     -33.990   4.864   4.018  1.00 20.00    -0.097 Cl
HETATM    5 CL7  UNL     1     -34.529   7.668   4.604  1.00 20.00    -0.097 Cl
ENDBRANCH   1   3
BRANCH   1   6
HETATM    6  O5  UNL     1     -32.869   5.996   1.514  1.00 20.00    -0.324 OA
HETATM    7  C2  UNL     1     -31.772   6.286   0.641  1.00 20.00     0.213 C 
ENDBRANCH   1   6
TORSDOF 2
