REMARK  0 active torsions:
REMARK  status: ('A' for Active; 'I' for Inactive)
ROOT
HETATM    1  C1  UNL     1     -32.808   7.681   2.284  1.00 20.00    -0.077 C 
HETATM    2  C2  UNL     1     -32.268   8.573   1.446  1.00 20.00     0.015 C 
HETATM    3  C3  UNL     1     -34.465   8.044   4.078  1.00 20.00     0.009 C 
HETATM    4  C4  UNL     1     -35.022   6.624   3.865  1.00 20.00     0.006 C 
HETATM    5  C5  UNL     1     -32.707   6.452   4.274  1.00 20.00     0.014 C 
HETATM    6  C6  UNL     1     -32.966   7.874   3.780  1.00 20.00     0.015 C 
HETATM    7  C7  UNL     1     -33.787   5.837   3.370  1.00 20.00    -0.002 C 
HETATM    8  C8  UNL     1     -33.331   6.289   1.942  1.00 20.00    -0.021 C 
HETATM    9  C9  UNL     1     -32.216   5.372   1.405  1.00 20.00     0.020 C 
HETATM   10  C10 UNL     1     -34.474   6.320   0.918  1.00 20.00     0.020 C 
ENDROOT
TORSDOF 0
