REMARK  2 active torsions:
REMARK  status: ('A' for Active; 'I' for Inactive)
REMARK    1  A    between atoms: C4_4  and  C5_5 
REMARK    2  A    between atoms: C4_4  and  C6_6 
ROOT
HETATM    1  C1  UNL     1     -33.554   6.024   2.543  1.00 20.00     0.068 C 
HETATM    2  C2  UNL     1     -33.468   7.725   4.307  1.00 20.00     0.031 C 
HETATM    3  C3  UNL     1     -35.540   6.370   3.957  1.00 20.00     0.031 C 
HETATM    4  C6  UNL     1     -34.004   6.333   3.920  1.00 20.00     0.043 C 
HETATM    5  N7  UNL     1     -33.202   5.782   1.464  1.00 20.00    -0.196 NA
ENDROOT
BRANCH   4   6
HETATM    6  C4  UNL     1     -33.434   5.291   4.918  1.00 20.00     0.039 C 
BRANCH   6   7
HETATM    7  C5  UNL     1     -33.808   3.839   4.620  1.00 20.00     0.116 C 
HETATM    8 CL8  UNL     1     -33.068   2.754   5.825  1.00 20.00    -0.130 Cl
ENDBRANCH   6   7
ENDBRANCH   4   6
TORSDOF 2
