REMARK  2 active torsions:
REMARK  status: ('A' for Active; 'I' for Inactive)
REMARK    1  A    between atoms: C3_3  and  C4_4 
REMARK    2  A    between atoms: C4_4  and  O5_5 
ROOT
HETATM    1  C1  UNL     1     -34.377   6.478   4.002  1.00 20.00     0.046 C 
HETATM    2  C2  UNL     1     -34.306   8.938   3.553  1.00 20.00     0.046 C 
HETATM    3  C4  UNL     1     -33.496   7.640   3.530  1.00 20.00     0.063 C 
ENDROOT
BRANCH   3   4
HETATM    4  C3  UNL     1     -32.923   7.317   2.141  1.00 20.00     0.151 C 
HETATM    5 CL6  UNL     1     -31.850   8.597   1.514  1.00 20.00    -0.127 Cl
ENDBRANCH   3   4
BRANCH   3   6
HETATM    6  O5  UNL     1     -32.424   7.777   4.465  1.00 20.00    -0.390 OA
HETATM    7  H15 UNL     1     -32.833   7.961   5.324  1.00 20.00     0.210 HD
ENDBRANCH   3   6
TORSDOF 2
