REMARK  0 active torsions:
REMARK  status: ('A' for Active; 'I' for Inactive)
ROOT
HETATM    1  C1  UNL     1     -31.624   5.053   0.902  1.00 20.00     0.002 A 
HETATM    2  C2  UNL     1     -32.473   4.547   1.886  1.00 20.00     0.016 A 
HETATM    3  C3  UNL     1     -31.573   6.433   0.642  1.00 20.00     0.019 A 
HETATM    4  C4  UNL     1     -33.248   5.455   2.583  1.00 20.00     0.017 A 
HETATM    5  C5  UNL     1     -33.213   6.823   2.342  1.00 20.00    -0.026 A 
HETATM    6  C6  UNL     1     -32.370   7.327   1.365  1.00 20.00     0.018 A 
HETATM    7  C7  UNL     1     -34.207   5.205   3.647  1.00 20.00     0.160 A 
HETATM    8  C8  UNL     1     -34.142   7.592   3.225  1.00 20.00     0.048 A 
HETATM    9  C9  UNL     1     -34.808   6.515   4.099  1.00 20.00     0.088 A 
HETATM   10  O10 UNL     1     -34.469   4.102   4.089  1.00 20.00    -0.292 OA
HETATM   11 BR11 UNL     1     -32.271   9.175   0.984  1.00 20.00    -0.051 Br
ENDROOT
TORSDOF 0
