REMARK  3 active torsions:
REMARK  status: ('A' for Active; 'I' for Inactive)
REMARK    1  A    between atoms: C2_2  and  C8_8 
REMARK    2  A    between atoms: C4_4  and  C7_7 
REMARK    3  A    between atoms: C7_7  and  C8_8 
ROOT
HETATM    1  C7  UNL     1     -32.025   7.018   1.645  1.00 20.00     0.034 C 
ENDROOT
BRANCH   1   2
HETATM    2  C4  UNL     1     -32.526   8.410   1.374  1.00 20.00    -0.030 C 
HETATM    3  C3  UNL     1     -32.210   9.116   0.279  1.00 20.00    -0.035 C 
HETATM    4  C5  UNL     1     -32.708  10.497   0.009  1.00 20.00     0.035 C 
ENDBRANCH   1   2
BRANCH   1   5
HETATM    5  C8  UNL     1     -33.167   5.993   1.794  1.00 20.00     0.007 C 
HETATM    6  C6  UNL     1     -32.645   4.581   1.521  1.00 20.00     0.014 C 
BRANCH   5   7
HETATM    7  C2  UNL     1     -33.776   6.042   3.175  1.00 20.00    -0.032 C 
HETATM    8  C1  UNL     1     -35.064   6.315   3.415  1.00 20.00     0.007 C 
ENDBRANCH   5   7
ENDBRANCH   1   5
TORSDOF 3
