REMARK  2 active torsions:
REMARK  status: ('A' for Active; 'I' for Inactive)
REMARK    1  A    between atoms: C1_1  and  C8_8 
REMARK    2  A    between atoms: C8_8  and  O10_10 
ROOT
HETATM    1  C1  UNL     1     -34.173   5.521   3.958  1.00 20.00    -0.069 C 
HETATM    2  C2  UNL     1     -33.768   4.431   4.255  1.00 20.00    -0.108 C 
HETATM    3  C9  UNL     1     -33.273   3.103   4.618  1.00 20.00     0.112 C 
ENDROOT
BRANCH   1   4
HETATM    4  C8  UNL     1     -34.671   6.860   3.592  1.00 20.00     0.121 C 
HETATM    5  C6  UNL     1     -34.310   7.889   4.676  1.00 20.00     0.051 C 
HETATM    6  C4  UNL     1     -32.820   8.230   4.702  1.00 20.00     0.004 C 
HETATM    7  C3  UNL     1     -32.320   8.668   3.329  1.00 20.00     0.000 C 
HETATM    8  C5  UNL     1     -32.634   7.631   2.254  1.00 20.00     0.004 C 
HETATM    9  C7  UNL     1     -34.124   7.288   2.222  1.00 20.00     0.051 C 
BRANCH   4  10
HETATM   10  O10 UNL     1     -36.095   6.777   3.504  1.00 20.00    -0.378 OA
HETATM   11  H24 UNL     1     -36.405   7.663   3.264  1.00 20.00     0.211 HD
ENDBRANCH   4  10
ENDBRANCH   1   4
TORSDOF 2
