REMARK  1 active torsions:
REMARK  status: ('A' for Active; 'I' for Inactive)
REMARK    1  A    between atoms: C1_1  and  N7_7 
ROOT
HETATM    1  C2  UNL     1     -31.637   7.547   1.532  1.00 20.00     0.003 C 
HETATM    2  C3  UNL     1     -32.150   8.014   2.895  1.00 20.00     0.020 C 
HETATM    3  C4  UNL     1     -31.753   6.028   1.395  1.00 20.00     0.020 C 
HETATM    4  C5  UNL     1     -33.567   7.511   3.155  1.00 20.00     0.123 C 
HETATM    5  C6  UNL     1     -33.175   5.554   1.677  1.00 20.00     0.123 C 
HETATM    6  N7  UNL     1     -33.653   6.069   2.954  1.00 20.00    -0.381 N 
ENDROOT
BRANCH   6   7
HETATM    7  C1  UNL     1     -34.215   5.256   3.883  1.00 20.00     0.168 C 
HETATM    8  S8  UNL     1     -34.334   3.606   3.699  1.00 20.00    -0.074 SA
ENDBRANCH   6   7
TORSDOF 1
