REMARK  2 active torsions:
REMARK  status: ('A' for Active; 'I' for Inactive)
REMARK    1  A    between atoms: C1_1  and  C6_6 
REMARK    2  A    between atoms: C5_5  and  C10_10 
ROOT
HETATM    1  C2  UNL     1     -32.245   5.880   1.509  1.00 20.00     0.006 C 
HETATM    2  C3  UNL     1     -31.659   7.093   0.785  1.00 20.00     0.016 C 
HETATM    3  C4  UNL     1     -32.838   7.773   2.822  1.00 20.00     0.021 C 
HETATM    4  C5  UNL     1     -33.402   6.441   2.328  1.00 20.00    -0.010 C 
HETATM    5  C6  UNL     1     -32.090   8.330   1.600  1.00 20.00     0.010 C 
HETATM    6  C7  UNL     1     -30.905   9.201   2.008  1.00 20.00     0.023 C 
ENDROOT
BRANCH   4   7
HETATM    7  C10 UNL     1     -33.837   5.521   3.456  1.00 20.00    -0.019 C 
HETATM    8  C8  UNL     1     -34.974   6.149   4.264  1.00 20.00     0.010 C 
HETATM    9  C9  UNL     1     -34.263   4.156   2.912  1.00 20.00     0.010 C 
ENDBRANCH   4   7
BRANCH   5  10
HETATM   10  C1  UNL     1     -33.015   9.191   0.777  1.00 20.00     0.240 C 
HETATM   11  O11 UNL     1     -32.695   9.696  -0.294  1.00 20.00    -0.306 OA
ENDBRANCH   5  10
TORSDOF 2
