REMARK  0 active torsions:
REMARK  status: ('A' for Active; 'I' for Inactive)
ROOT
HETATM    1  C1  UNL     1     -35.349   5.784   3.822  1.00 20.00     0.005 C 
HETATM    2  C2  UNL     1     -33.942   5.217   4.055  1.00 20.00     0.008 C 
HETATM    3  C3  UNL     1     -33.848   7.558   4.334  1.00 20.00     0.012 C 
HETATM    4  C4  UNL     1     -34.492   7.321   2.037  1.00 20.00     0.047 C 
HETATM    5  C5  UNL     1     -35.071   7.254   3.468  1.00 20.00    -0.011 C 
HETATM    6  C6  UNL     1     -33.024   6.413   3.728  1.00 20.00     0.025 C 
HETATM    7  C7  UNL     1     -33.059   6.769   2.217  1.00 20.00     0.117 C 
HETATM    8 CL8  UNL     1     -31.846   8.043   1.849  1.00 20.00    -0.101 Cl
HETATM    9 CL9  UNL     1     -32.730   5.386   1.145  1.00 20.00    -0.101 Cl
ENDROOT
TORSDOF 0
