REMARK  1 active torsions:
REMARK  status: ('A' for Active; 'I' for Inactive)
REMARK    1  A    between atoms: C1_1  and  C3_3 
ROOT
HETATM    1  C2  UNL     1     -35.199   6.560   2.983  1.00 20.00     0.018 A 
HETATM    2  C3  UNL     1     -33.749   6.971   3.021  1.00 20.00     0.076 A 
HETATM    3  C4  UNL     1     -34.275   5.945   3.995  1.00 20.00    -0.005 A 
HETATM    4  C5  UNL     1     -33.917   4.501   3.897  1.00 20.00     0.011 C 
ENDROOT
BRANCH   2   5
HETATM    5  C1  UNL     1     -32.860   6.581   1.920  1.00 20.00     0.223 C 
HETATM    6  O6  UNL     1     -32.971   5.497   1.355  1.00 20.00    -0.279 OA
HETATM    7 CL7  UNL     1     -31.691   7.813   1.556  1.00 20.00    -0.043 Cl
ENDBRANCH   2   5
TORSDOF 1
