REMARK  1 active torsions:
REMARK  status: ('A' for Active; 'I' for Inactive)
REMARK    1  A    between atoms: C2_2  and  C3_3 
ROOT
HETATM    1  C3  UNL     1     -33.184   6.635   2.033  1.00 20.00     0.423 C 
HETATM    2  F4  UNL     1     -32.614   5.515   1.517  1.00 20.00    -0.166 F 
HETATM    3  F5  UNL     1     -32.203   7.574   2.084  1.00 20.00    -0.166 F 
HETATM    4  F6  UNL     1     -34.088   7.073   1.119  1.00 20.00    -0.166 F 
ENDROOT
BRANCH   1   5
HETATM    5  C2  UNL     1     -33.813   6.379   3.362  1.00 20.00     0.085 C 
HETATM    6  C1  UNL     1     -34.442   7.317   4.082  1.00 20.00     0.036 C 
HETATM    7 BR7  UNL     1     -33.666   4.617   3.977  1.00 20.00    -0.047 Br
ENDBRANCH   1   5
TORSDOF 1
