REMARK  0 active torsions:
REMARK  status: ('A' for Active; 'I' for Inactive)
ROOT
HETATM    1  C1  UNL     1     -31.410   6.912   1.604  1.00 20.00     0.005 C 
HETATM    2  C2  UNL     1     -32.316   8.151   1.605  1.00 20.00     0.008 C 
HETATM    3  C3  UNL     1     -33.640   6.270   1.081  1.00 20.00     0.012 C 
HETATM    4  C4  UNL     1     -32.871   5.778   3.297  1.00 20.00     0.047 C 
HETATM    5  C5  UNL     1     -32.405   5.761   1.824  1.00 20.00    -0.011 C 
HETATM    6  C6  UNL     1     -33.711   7.564   1.904  1.00 20.00     0.025 C 
HETATM    7  C7  UNL     1     -33.804   7.009   3.350  1.00 20.00     0.117 C 
HETATM    8 CL8  UNL     1     -33.310   8.176   4.600  1.00 20.00    -0.101 Cl
HETATM    9 CL9  UNL     1     -35.489   6.503   3.716  1.00 20.00    -0.101 Cl
ENDROOT
TORSDOF 0
