REMARK  3 active torsions:
REMARK  status: ('A' for Active; 'I' for Inactive)
REMARK    1  A    between atoms: C4_4  and  C10_10 
REMARK    2  A    between atoms: C5_5  and  C11_11 
REMARK    3  A    between atoms: C6_6  and  C12_12 
ROOT
HETATM    1  C7  UNL     1     -32.321   6.778   0.480  1.00 20.00     0.009 C 
HETATM    2  C8  UNL     1     -32.423   5.681   1.537  1.00 20.00     0.010 C 
HETATM    3  C9  UNL     1     -33.110   8.483   2.164  1.00 20.00     0.017 C 
HETATM    4  C10 UNL     1     -32.042   8.143   1.116  1.00 20.00     0.008 C 
HETATM    5  C11 UNL     1     -33.481   6.005   2.603  1.00 20.00     0.015 C 
HETATM    6  C12 UNL     1     -33.223   7.390   3.241  1.00 20.00     0.015 C 
ENDROOT
BRANCH   4   7
HETATM    7  C4  UNL     1     -31.966   9.205   0.063  1.00 20.00    -0.032 C 
HETATM    8  C1  UNL     1     -32.980   9.532  -0.746  1.00 20.00     0.007 C 
ENDBRANCH   4   7
BRANCH   6   9
HETATM    9  C6  UNL     1     -34.298   7.762   4.221  1.00 20.00    -0.031 C 
HETATM   10  C3  UNL     1     -34.079   7.993   5.520  1.00 20.00     0.007 C 
ENDBRANCH   6   9
BRANCH   5  11
HETATM   11  C5  UNL     1     -33.502   4.902   3.622  1.00 20.00    -0.031 C 
HETATM   12  C2  UNL     1     -34.557   4.113   3.850  1.00 20.00     0.007 C 
ENDBRANCH   5  11
TORSDOF 3
