REMARK  0 active torsions:
REMARK  status: ('A' for Active; 'I' for Inactive)
ROOT
HETATM    1  C1  UNL     1     -34.143   5.621   3.853  1.00 20.00     0.053 A 
HETATM    2  C2  UNL     1     -33.737   6.252   2.750  1.00 20.00    -0.072 A 
HETATM    3  C3  UNL     1     -33.611   4.256   3.740  1.00 20.00     0.150 A 
HETATM    4  C4  UNL     1     -33.948   7.691   2.407  1.00 20.00     0.034 C 
HETATM    5  C5  UNL     1     -32.802   4.065   2.487  1.00 20.00     0.092 A 
HETATM    6  C6  UNL     1     -32.607   8.354   2.082  1.00 20.00     0.004 C 
HETATM    7  C7  UNL     1     -31.792   7.552   1.060  1.00 20.00     0.001 C 
HETATM    8  C8  UNL     1     -31.590   6.100   1.508  1.00 20.00     0.009 C 
HETATM    9  C9  UNL     1     -32.932   5.420   1.792  1.00 20.00     0.022 A 
HETATM   10  O10 UNL     1     -33.806   3.393   4.582  1.00 20.00    -0.293 OA
ENDROOT
TORSDOF 0
