REMARK  1 active torsions:
REMARK  status: ('A' for Active; 'I' for Inactive)
REMARK    1  A    between atoms: C1_1  and  O7_7 
ROOT
HETATM    1  C1  UNL     1     -34.690   5.327   4.540  1.00 20.00     0.294 A 
HETATM    2  C2  UNL     1     -33.980   6.347   3.676  1.00 20.00     0.106 A 
HETATM    3  C3  UNL     1     -33.651   7.685   4.257  1.00 20.00     0.051 C 
HETATM    4  C4  UNL     1     -33.188   5.920   2.480  1.00 20.00     0.051 C 
HETATM    5  O6  UNL     1     -35.388   6.100   3.552  1.00 20.00    -0.343 OA
ENDROOT
BRANCH   1   6
HETATM    6  O7  UNL     1     -34.491   3.941   4.226  1.00 20.00    -0.363 OA
HETATM    7  C5  UNL     1     -33.258   3.475   4.743  1.00 20.00     0.204 C 
ENDBRANCH   1   6
TORSDOF 1
