REMARK  2 active torsions:
REMARK  status: ('A' for Active; 'I' for Inactive)
REMARK    1  A    between atoms: C1_1  and  C2_2 
REMARK    2  A    between atoms: C3_3  and  C4_4 
ROOT
HETATM    1  C1  UNL     1     -32.314   8.006   2.557  1.00 20.00     0.051 C 
HETATM    2  C3  UNL     1     -33.181   7.764   3.554  1.00 20.00    -0.014 C 
HETATM    3  C5  UNL     1     -33.351   8.569   4.813  1.00 20.00     0.052 C 
ENDROOT
BRANCH   2   4
HETATM    4  C4  UNL     1     -34.106   6.573   3.455  1.00 20.00     0.151 C 
HETATM    5  C6  UNL     1     -35.465   6.612   4.111  1.00 20.00     0.096 C 
HETATM    6  O8  UNL     1     -33.751   5.567   2.837  1.00 20.00    -0.293 OA
ENDBRANCH   2   4
BRANCH   1   7
HETATM    7  C2  UNL     1     -32.184   7.182   1.333  1.00 20.00     0.259 C 
HETATM    8  O7  UNL     1     -31.413   6.231   1.279  1.00 20.00    -0.302 OA
ENDBRANCH   1   7
TORSDOF 2
