REMARK  0 active torsions:
REMARK  status: ('A' for Active; 'I' for Inactive)
ROOT
HETATM    1  C1  UNL     1     -33.955   5.276   3.704  1.00 20.00    -0.089 C 
HETATM    2  C2  UNL     1     -34.378   4.170   4.340  1.00 20.00     0.014 C 
HETATM    3  C3  UNL     1     -34.625   6.601   3.967  1.00 20.00     0.033 C 
HETATM    4  C4  UNL     1     -32.834   5.177   2.692  1.00 20.00     0.033 C 
HETATM    5  C5  UNL     1     -33.758   7.651   4.660  1.00 20.00     0.004 C 
HETATM    6  C6  UNL     1     -32.980   6.048   1.438  1.00 20.00     0.004 C 
HETATM    7  C7  UNL     1     -32.499   8.112   3.924  1.00 20.00     0.000 C 
HETATM    8  C8  UNL     1     -32.200   7.366   1.479  1.00 20.00     0.000 C 
HETATM    9  C9  UNL     1     -32.703   8.441   2.444  1.00 20.00     0.000 C 
ENDROOT
TORSDOF 0
