REMARK  0 active torsions:
REMARK  status: ('A' for Active; 'I' for Inactive)
ROOT
HETATM    1  C1  UNL     1     -34.064   6.276   3.261  1.00 20.00     0.223 A 
HETATM    2  C2  UNL     1     -33.437   8.129   1.599  1.00 20.00     0.027 A 
HETATM    3  C3  UNL     1     -33.188   7.411   2.891  1.00 20.00     0.089 A 
HETATM    4  C4  UNL     1     -32.413   7.006   1.654  1.00 20.00    -0.006 A 
HETATM    5  C5  UNL     1     -32.822   5.556   1.337  1.00 20.00     0.034 A 
HETATM    6  C6  UNL     1     -30.974   7.403   1.500  1.00 20.00     0.018 C 
HETATM    7  C7  UNL     1     -31.681   4.552   1.540  1.00 20.00     0.039 C 
HETATM    8  C8  UNL     1     -33.384   5.427  -0.079  1.00 20.00     0.039 C 
HETATM    9  N9  UNL     1     -33.859   5.271   2.334  1.00 20.00    -0.351 N 
HETATM   10  O10 UNL     1     -34.821   6.293   4.218  1.00 20.00    -0.273 OA
HETATM   11  H23 UNL     1     -34.355   4.386   2.371  1.00 20.00     0.163 HD
ENDROOT
TORSDOF 0
