REMARK  0 active torsions:
REMARK  status: ('A' for Active; 'I' for Inactive)
ROOT
HETATM    1  C1  UNL     1     -33.015   5.556   1.992  1.00 20.00     0.131 C 
HETATM    2  C2  UNL     1     -33.367   4.833   3.278  1.00 20.00     0.079 C 
HETATM    3  C3  UNL     1     -34.666   5.312   3.923  1.00 20.00     0.012 C 
HETATM    4  C4  UNL     1     -32.609   7.803   4.176  1.00 20.00     0.001 C 
HETATM    5  C5  UNL     1     -32.455   7.924   2.659  1.00 20.00     0.012 C 
HETATM    6  C6  UNL     1     -34.063   7.715   4.640  1.00 20.00     0.005 C 
HETATM    7  C7  UNL     1     -34.843   7.206   2.309  1.00 20.00     0.016 C 
HETATM    8  C8  UNL     1     -33.401   7.023   1.860  1.00 20.00     0.056 C 
HETATM    9  C9  UNL     1     -34.963   6.813   3.780  1.00 20.00    -0.013 C 
HETATM   10  O10 UNL     1     -32.348   4.998   1.119  1.00 20.00    -0.298 OA
ENDROOT
TORSDOF 0
