REMARK  2 active torsions:
REMARK  status: ('A' for Active; 'I' for Inactive)
REMARK    1  A    between atoms: C1_1  and  C7_7 
REMARK       I    between atoms: C1_1  and  N9_9 
REMARK    2  A    between atoms: C7_7  and  C8_8 
ROOT
HETATM    1  C1  UNL     1     -32.493   6.947   1.966  1.00 20.00     0.219 C 
HETATM    2  C2  UNL     1     -34.809   5.266   4.273  1.00 20.00     0.021 C 
HETATM    3  C3  UNL     1     -35.356   6.688   4.301  1.00 20.00     0.021 C 
HETATM    4  C4  UNL     1     -33.983   5.246   2.997  1.00 20.00     0.126 C 
HETATM    5  C5  UNL     1     -34.190   7.511   3.770  1.00 20.00     0.126 C 
HETATM    6  N9  UNL     1     -33.493   6.609   2.859  1.00 20.00    -0.352 N 
HETATM    7  O10 UNL     1     -31.934   6.142   1.219  1.00 20.00    -0.273 OA
ENDROOT
BRANCH   1   8
HETATM    8  C7  UNL     1     -32.107   8.405   1.943  1.00 20.00     0.103 C 
BRANCH   8   9
HETATM    9  C8  UNL     1     -32.950   9.161   0.930  1.00 20.00     0.005 C 
HETATM   10  C6  UNL     1     -32.563  10.629   0.817  1.00 20.00     0.005 C 
ENDBRANCH   8   9
ENDBRANCH   1   8
TORSDOF 2
