REMARK  0 active torsions:
REMARK  status: ('A' for Active; 'I' for Inactive)
ROOT
HETATM    1  C1  UNL     1     -33.237   5.295   3.129  1.00 20.00     0.000 C 
HETATM    2  C2  UNL     1     -33.906   6.604   3.538  1.00 20.00     0.003 C 
HETATM    3  C3  UNL     1     -32.641   5.372   1.726  1.00 20.00     0.003 C 
HETATM    4  C4  UNL     1     -32.579   9.199   0.000  1.00 20.00     0.029 C 
HETATM    5  C5  UNL     1     -32.948   7.783   3.399  1.00 20.00     0.038 C 
HETATM    6  C6  UNL     1     -31.712   6.575   1.570  1.00 20.00     0.038 C 
HETATM    7  C7  UNL     1     -33.411   8.393   0.967  1.00 20.00     0.040 C 
HETATM    8  C8  UNL     1     -31.565   9.836   0.920  1.00 20.00     0.168 C 
HETATM    9  C9  UNL     1     -32.371   7.904   1.982  1.00 20.00     0.061 C 
HETATM   10  O10 UNL     1     -31.339   8.915   1.995  1.00 20.00    -0.380 OA
ENDROOT
TORSDOF 0
