REMARK  2 active torsions:
REMARK  status: ('A' for Active; 'I' for Inactive)
REMARK    1  A    between atoms: C1_1  and  C3_3 
REMARK    2  A    between atoms: C2_2  and  C5_5 
ROOT
HETATM    1  C1  UNL     1     -32.780   7.162   2.145  1.00 20.00     0.003 C 
HETATM    2  C2  UNL     1     -33.945   7.275   2.795  1.00 20.00     0.041 C 
ENDROOT
BRANCH   1   3
HETATM    3  C3  UNL     1     -32.275   8.191   1.263  1.00 20.00    -0.004 C 
HETATM    4  C4  UNL     1     -33.055   8.882   0.419  1.00 20.00    -0.031 C 
HETATM    5  C6  UNL     1     -32.546   9.946  -0.496  1.00 20.00     0.036 C 
ENDBRANCH   1   3
BRANCH   2   6
HETATM    6  C5  UNL     1     -34.383   6.174   3.675  1.00 20.00     0.258 C 
HETATM    7  O7  UNL     1     -35.439   6.221   4.295  1.00 20.00    -0.302 OA
ENDBRANCH   2   6
TORSDOF 2
