REMARK  2 active torsions:
REMARK  status: ('A' for Active; 'I' for Inactive)
REMARK    1  A    between atoms: C9_9  and  C11_11 
REMARK    2  A    between atoms: C10_10  and  C11_11 
ROOT
HETATM    1  C6  UNL     1     -32.013   9.341  -0.346  1.00 20.00     0.207 A 
HETATM    2  C11 UNL     1     -32.533   8.593   0.857  1.00 20.00     0.089 A 
HETATM    3  O12 UNL     1     -32.429  10.022   0.849  1.00 20.00    -0.374 OA
ENDROOT
BRANCH   2   4
HETATM    4  C9  UNL     1     -31.588   7.887   1.801  1.00 20.00     0.023 C 
HETATM    5  C2  UNL     1     -32.146   8.001   3.232  1.00 20.00     0.012 C 
HETATM    6  C7  UNL     1     -33.564   7.398   3.296  1.00 20.00    -0.013 C 
HETATM    7  C1  UNL     1     -33.505   5.919   2.877  1.00 20.00     0.009 C 
HETATM    8  C3  UNL     1     -34.484   8.165   2.324  1.00 20.00     0.012 C 
HETATM    9  C8  UNL     1     -32.958   5.794   1.445  1.00 20.00    -0.013 C 
HETATM   10  C4  UNL     1     -31.539   6.402   1.390  1.00 20.00     0.012 C 
HETATM   11  C5  UNL     1     -33.883   6.566   0.480  1.00 20.00     0.012 C 
HETATM   12  C10 UNL     1     -33.943   8.052   0.886  1.00 20.00     0.023 C 
ENDBRANCH   2   4
TORSDOF 2
