REMARK  1 active torsions:
REMARK  status: ('A' for Active; 'I' for Inactive)
REMARK    1  A    between atoms: C1_1  and  C8_8 
ROOT
HETATM    1  C1  UNL     1     -33.006   7.504   2.604  1.00 20.00     0.139 C 
HETATM    2  C2  UNL     1     -34.166   7.729   4.447  1.00 20.00     0.209 C 
HETATM    3  C3  UNL     1     -34.586   6.474   3.690  1.00 20.00     0.070 C 
HETATM    4  C4  UNL     1     -34.550   5.231   4.573  1.00 20.00     0.042 C 
HETATM    5  C5  UNL     1     -35.964   6.634   3.042  1.00 20.00     0.042 C 
HETATM    6  N9  UNL     1     -33.582   6.345   2.615  1.00 20.00    -0.258 NA
HETATM    7  O10 UNL     1     -33.348   8.435   3.523  1.00 20.00    -0.335 OA
ENDROOT
BRANCH   1   8
HETATM    8  C8  UNL     1     -31.957   7.930   1.645  1.00 20.00     0.054 C 
HETATM    9  C6  UNL     1     -32.429   9.130   0.820  1.00 20.00     0.018 C 
HETATM   10  C7  UNL     1     -30.646   8.261   2.364  1.00 20.00     0.018 C 
ENDBRANCH   1   8
TORSDOF 1
