REMARK  1 active torsions:
REMARK  status: ('A' for Active; 'I' for Inactive)
REMARK    1  A    between atoms: C5_5  and  C6_6 
ROOT
HETATM    1  C1  UNL     1     -32.555   9.849   0.947  1.00 20.00     0.086 C 
HETATM    2  C2  UNL     1     -31.896   8.704   0.207  1.00 20.00     0.086 C 
HETATM    3  C5  UNL     1     -32.897   7.638   2.511  1.00 20.00     0.078 C 
HETATM    4  C7  UNL     1     -32.439   7.779   3.962  1.00 20.00     0.041 C 
HETATM    5  S9  UNL     1     -33.827   9.141   2.023  1.00 20.00    -0.145 SA
HETATM    6  S10 UNL     1     -31.422   7.463   1.435  1.00 20.00    -0.145 SA
ENDROOT
BRANCH   3   7
HETATM    7  C6  UNL     1     -33.798   6.417   2.330  1.00 20.00     0.078 C 
HETATM    8  C8  UNL     1     -34.256   6.275   0.879  1.00 20.00     0.041 C 
HETATM    9  S11 UNL     1     -35.268   6.597   3.411  1.00 20.00    -0.145 SA
HETATM   10  C3  UNL     1     -35.199   4.948   4.155  1.00 20.00     0.086 C 
HETATM   11  C4  UNL     1     -33.740   4.608   4.372  1.00 20.00     0.086 C 
HETATM   12  S12 UNL     1     -32.874   4.908   2.812  1.00 20.00    -0.145 SA
ENDBRANCH   3   7
TORSDOF 1
