REMARK  2 active torsions:
REMARK  status: ('A' for Active; 'I' for Inactive)
REMARK    1  A    between atoms: C5_5  and  C9_9 
REMARK    2  A    between atoms: C9_9  and  O10_10 
ROOT
HETATM    1  C1  UNL     1     -35.025   4.420   4.323  1.00 20.00    -0.024 C 
HETATM    2  C2  UNL     1     -33.735   4.092   4.180  1.00 20.00    -0.087 C 
HETATM    3  C3  UNL     1     -35.293   5.820   3.876  1.00 20.00     0.035 C 
HETATM    4  C4  UNL     1     -32.938   5.224   3.611  1.00 20.00     0.041 C 
HETATM    5  C5  UNL     1     -34.030   6.159   3.074  1.00 20.00     0.026 C 
HETATM    6  C6  UNL     1     -33.092   2.806   4.553  1.00 20.00     0.043 C 
ENDROOT
BRANCH   5   7
HETATM    7  C9  UNL     1     -33.650   7.629   3.152  1.00 20.00     0.055 C 
HETATM    8  C7  UNL     1     -34.773   8.513   2.606  1.00 20.00     0.045 C 
HETATM    9  C8  UNL     1     -32.345   7.903   2.401  1.00 20.00     0.045 C 
BRANCH   7  10
HETATM   10  O10 UNL     1     -33.460   7.985   4.525  1.00 20.00    -0.390 OA
HETATM   11  H26 UNL     1     -33.221   8.923   4.531  1.00 20.00     0.210 HD
ENDBRANCH   7  10
ENDBRANCH   5   7
TORSDOF 2
