REMARK  1 active torsions:
REMARK  status: ('A' for Active; 'I' for Inactive)
REMARK    1  A    between atoms: C4_4  and  O5_5 
ROOT
HETATM    1  C1  UNL     1     -32.622   6.347   1.497  1.00 20.00     0.014 C 
HETATM    2  C2  UNL     1     -33.191   6.754   2.473  1.00 20.00    -0.091 C 
HETATM    3  C4  UNL     1     -33.882   7.252   3.663  1.00 20.00     0.259 C 
ENDROOT
BRANCH   3   4
HETATM    4  O5  UNL     1     -35.220   6.774   3.698  1.00 20.00    -0.384 OA
HETATM    5  C3  UNL     1     -35.284   5.438   4.180  1.00 20.00     0.202 C 
ENDBRANCH   3   4
TORSDOF 1
