REMARK  2 active torsions:
REMARK  status: ('A' for Active; 'I' for Inactive)
REMARK    1  A    between atoms: C1_1  and  C3_3 
REMARK    2  A    between atoms: C2_2  and  C4_4 
ROOT
HETATM    1  C1  UNL     1     -34.110   6.266   3.028  1.00 20.00     0.017 C 
HETATM    2  C2  UNL     1     -33.274   6.312   2.168  1.00 20.00     0.017 C 
ENDROOT
BRANCH   1   3
HETATM    3  C3  UNL     1     -35.121   6.210   4.069  1.00 20.00     0.459 C 
HETATM    4  F5  UNL     1     -35.105   5.010   4.691  1.00 20.00    -0.159 F 
HETATM    5  F6  UNL     1     -34.908   7.167   4.999  1.00 20.00    -0.159 F 
HETATM    6  F7  UNL     1     -36.355   6.397   3.552  1.00 20.00    -0.159 F 
ENDBRANCH   1   3
BRANCH   2   7
HETATM    7  C4  UNL     1     -32.262   6.369   1.129  1.00 20.00     0.459 C 
HETATM    8  F8  UNL     1     -31.446   7.431   1.308  1.00 20.00    -0.159 F 
HETATM    9  F9  UNL     1     -32.831   6.479  -0.092  1.00 20.00    -0.159 F 
HETATM   10  F10 UNL     1     -31.501   5.252   1.137  1.00 20.00    -0.159 F 
ENDBRANCH   2   7
TORSDOF 2
