REMARK  2 active torsions:
REMARK  status: ('A' for Active; 'I' for Inactive)
REMARK    1  A    between atoms: C3_3  and  C8_8 
REMARK    2  A    between atoms: C4_4  and  C7_7 
ROOT
HETATM    1  C5  UNL     1     -34.122   6.663   1.332  1.00 20.00     0.040 C 
HETATM    2  C6  UNL     1     -32.954   6.995   0.432  1.00 20.00     0.045 C 
HETATM    3  C7  UNL     1     -33.451   6.594   2.694  1.00 20.00     0.151 C 
HETATM    4  C8  UNL     1     -32.131   7.947   1.300  1.00 20.00     0.075 C 
HETATM    5  C10 UNL     1     -30.637   7.845   1.008  1.00 20.00     0.050 C 
HETATM    6  O11 UNL     1     -32.364   7.536   2.663  1.00 20.00    -0.367 OA
ENDROOT
BRANCH   3   7
HETATM    7  C4  UNL     1     -34.366   6.918   3.823  1.00 20.00    -0.065 C 
HETATM    8  C2  UNL     1     -34.170   7.986   4.610  1.00 20.00     0.016 C 
HETATM    9  C9  UNL     1     -35.521   5.982   4.029  1.00 20.00     0.045 C 
ENDBRANCH   3   7
BRANCH   4  10
HETATM   10  C3  UNL     1     -32.580   9.373   1.164  1.00 20.00     0.000 C 
HETATM   11  C1  UNL     1     -32.577  10.053   0.013  1.00 20.00     0.010 C 
ENDBRANCH   4  10
TORSDOF 2
