REMARK  2 active torsions:
REMARK  status: ('A' for Active; 'I' for Inactive)
REMARK    1  A    between atoms: C3_3  and  C8_8 
REMARK    2  A    between atoms: C4_4  and  C7_7 
ROOT
HETATM    1  C5  UNL     1     -31.590   6.369   1.278  1.00 20.00     0.040 C 
HETATM    2  C6  UNL     1     -32.901   5.769   1.730  1.00 20.00     0.045 C 
HETATM    3  C7  UNL     1     -31.741   7.832   1.662  1.00 20.00     0.151 C 
HETATM    4  C8  UNL     1     -33.221   6.571   2.991  1.00 20.00     0.075 C 
HETATM    5  C10 UNL     1     -32.616   5.941   4.248  1.00 20.00     0.050 C 
HETATM    6  O11 UNL     1     -32.604   7.863   2.813  1.00 20.00    -0.367 OA
ENDROOT
BRANCH   3   7
HETATM    7  C4  UNL     1     -32.357   8.666   0.585  1.00 20.00    -0.065 C 
HETATM    8  C2  UNL     1     -32.639   8.165  -0.626  1.00 20.00     0.016 C 
HETATM    9  C9  UNL     1     -32.641  10.096   0.938  1.00 20.00     0.045 C 
ENDBRANCH   3   7
BRANCH   4  10
HETATM   10  C3  UNL     1     -34.696   6.762   3.163  1.00 20.00     0.000 C 
HETATM   11  C1  UNL     1     -35.388   6.328   4.222  1.00 20.00     0.010 C 
ENDBRANCH   4  10
TORSDOF 2
