REMARK  0 active torsions:
REMARK  status: ('A' for Active; 'I' for Inactive)
ROOT
HETATM    1  C1  UNL     1     -31.439   7.612   1.500  1.00 20.00    -0.030 C 
HETATM    2  C2  UNL     1     -31.404   6.281   1.294  1.00 20.00    -0.030 C 
HETATM    3  C3  UNL     1     -35.278   6.545   3.941  1.00 20.00    -0.030 C 
HETATM    4  C4  UNL     1     -34.462   7.611   3.929  1.00 20.00    -0.025 C 
HETATM    5  C5  UNL     1     -32.467   8.295   2.374  1.00 20.00     0.035 C 
HETATM    6  C6  UNL     1     -32.425   5.321   1.863  1.00 20.00     0.032 C 
HETATM    7  C7  UNL     1     -34.677   5.374   3.211  1.00 20.00     0.032 C 
HETATM    8  C8  UNL     1     -33.177   7.266   3.250  1.00 20.00     0.016 C 
HETATM    9  C9  UNL     1     -33.635   6.097   2.366  1.00 20.00     0.000 C 
ENDROOT
TORSDOF 0
