REMARK  2 active torsions:
REMARK  status: ('A' for Active; 'I' for Inactive)
REMARK    1  A    between atoms: C1_1  and  C2_2 
REMARK    2  A    between atoms: C1_1  and  C3_3 
ROOT
HETATM    1  C1  UNL     1     -33.625   5.617   2.947  1.00 20.00     0.188 C 
ENDROOT
BRANCH   1   2
HETATM    2  C2  UNL     1     -32.748   6.146   1.830  1.00 20.00     0.361 C 
HETATM    3  F4  UNL     1     -31.879   5.176   1.447  1.00 20.00    -0.214 F 
HETATM    4  F5  UNL     1     -31.998   7.181   2.282  1.00 20.00    -0.214 F 
ENDBRANCH   1   2
BRANCH   1   5
HETATM    5  C3  UNL     1     -34.602   6.655   3.448  1.00 20.00     0.392 C 
HETATM    6  F6  UNL     1     -35.344   6.182   4.472  1.00 20.00    -0.171 F 
HETATM    7  F7  UNL     1     -33.964   7.766   3.873  1.00 20.00    -0.171 F 
HETATM    8  F8  UNL     1     -35.451   7.022   2.463  1.00 20.00    -0.171 F 
ENDBRANCH   1   5
TORSDOF 2
