REMARK  0 active torsions:
REMARK  status: ('A' for Active; 'I' for Inactive)
ROOT
HETATM    1  C1  UNL     1     -35.178   5.517   4.284  1.00 20.00     0.000 C 
HETATM    2  C2  UNL     1     -35.434   6.874   3.642  1.00 20.00     0.000 C 
HETATM    3  C3  UNL     1     -34.042   4.676   3.709  1.00 20.00     0.000 C 
HETATM    4  C4  UNL     1     -34.334   7.917   3.788  1.00 20.00     0.001 C 
HETATM    5  C5  UNL     1     -33.882   4.734   2.190  1.00 20.00     0.001 C 
HETATM    6  C6  UNL     1     -32.927   7.616   3.263  1.00 20.00     0.012 C 
HETATM    7  C7  UNL     1     -32.676   5.552   1.724  1.00 20.00     0.012 C 
HETATM    8  C8  UNL     1     -33.671   7.736   0.784  1.00 20.00     0.038 C 
HETATM    9  C9  UNL     1     -33.063   9.108   0.569  1.00 20.00     0.168 C 
HETATM   10  C10 UNL     1     -31.399   7.650   1.275  1.00 20.00     0.177 C 
HETATM   11  C11 UNL     1     -32.740   7.094   1.810  1.00 20.00    -0.017 C 
HETATM   12  O12 UNL     1     -31.655   8.980   0.800  1.00 20.00    -0.390 OA
ENDROOT
TORSDOF 0
