REMARK  2 active torsions:
REMARK  status: ('A' for Active; 'I' for Inactive)
REMARK    1  A    between atoms: C1_1  and  C2_2 
REMARK    2  A    between atoms: C1_1  and  C3_3 
ROOT
HETATM    1  C3  UNL     1     -32.552   7.655   2.029  1.00 20.00     0.321 C 
HETATM    2  F4  UNL     1     -31.801   8.131   3.057  1.00 20.00    -0.188 F 
HETATM    3  F5  UNL     1     -31.982   6.484   1.649  1.00 20.00    -0.188 F 
HETATM    4 CL7  UNL     1     -32.492   8.810   0.688  1.00 20.00    -0.048 Cl
ENDROOT
BRANCH   1   5
HETATM    5  C1  UNL     1     -33.965   7.397   2.534  1.00 20.00     0.112 C 
BRANCH   5   6
HETATM    6  C2  UNL     1     -34.030   6.381   3.668  1.00 20.00     0.122 C 
HETATM    7 CL6  UNL     1     -35.719   6.126   4.172  1.00 20.00    -0.130 Cl
ENDBRANCH   5   6
ENDBRANCH   1   5
TORSDOF 2
