REMARK  0 active torsions:
REMARK  status: ('A' for Active; 'I' for Inactive)
ROOT
HETATM    1  C1  UNL     1     -34.196   7.116   4.175  1.00 20.00     0.047 C 
HETATM    2  C2  UNL     1     -33.326   7.833   3.453  1.00 20.00    -0.014 C 
HETATM    3  C3  UNL     1     -34.694   5.813   3.677  1.00 20.00     0.149 C 
HETATM    4  C4  UNL     1     -34.240   5.340   2.317  1.00 20.00     0.084 C 
HETATM    5  C5  UNL     1     -32.845   5.860   1.995  1.00 20.00     0.021 C 
HETATM    6  C6  UNL     1     -31.698   9.886   0.776  1.00 20.00     0.000 C 
HETATM    7  C7  UNL     1     -30.936   9.261   1.937  1.00 20.00     0.001 C 
HETATM    8  C8  UNL     1     -33.192   9.599   0.864  1.00 20.00     0.001 C 
HETATM    9  C9  UNL     1     -31.217   7.762   2.062  1.00 20.00     0.013 C 
HETATM   10  C10 UNL     1     -33.472   8.098   0.960  1.00 20.00     0.013 C 
HETATM   11  C11 UNL     1     -32.725   7.401   2.125  1.00 20.00    -0.022 C 
HETATM   12  O12 UNL     1     -35.504   5.173   4.346  1.00 20.00    -0.293 OA
ENDROOT
TORSDOF 0
