REMARK  1 active torsions:
REMARK  status: ('A' for Active; 'I' for Inactive)
REMARK    1  A    between atoms: C3_3  and  C7_7 
ROOT
HETATM    1  C1  UNL     1     -33.923   5.550   2.588  1.00 20.00     0.001 C 
HETATM    2  C2  UNL     1     -34.401   6.386   3.522  1.00 20.00    -0.083 C 
HETATM    3  C5  UNL     1     -32.622   5.785   1.885  1.00 20.00     0.196 C 
HETATM    4  C6  UNL     1     -33.639   7.634   3.884  1.00 20.00     0.069 C 
HETATM    5  C7  UNL     1     -32.562   7.991   2.849  1.00 20.00     0.148 C 
HETATM    6  C8  UNL     1     -35.683   6.136   4.254  1.00 20.00     0.043 C 
HETATM    7  O11 UNL     1     -31.829   6.819   2.479  1.00 20.00    -0.378 OA
ENDROOT
BRANCH   5   8
HETATM    8  C3  UNL     1     -33.084   8.716   1.645  1.00 20.00     0.007 C 
HETATM    9  C4  UNL     1     -32.382   9.171   0.589  1.00 20.00    -0.089 C 
HETATM   10  C9  UNL     1     -33.061   9.884  -0.547  1.00 20.00     0.042 C 
HETATM   11  C10 UNL     1     -30.895   9.015   0.445  1.00 20.00     0.042 C 
ENDBRANCH   5   8
TORSDOF 1
