REMARK  2 active torsions:
REMARK  status: ('A' for Active; 'I' for Inactive)
REMARK    1  A    between atoms: C1_1  and  C2_2 
REMARK    2  A    between atoms: C2_2  and  C3_3 
ROOT
HETATM    1  C2  UNL     1     -33.626   7.310   3.319  1.00 20.00     0.391 C 
HETATM    2  F5  UNL     1     -34.339   8.428   3.020  1.00 20.00    -0.188 F 
HETATM    3  F6  UNL     1     -32.760   7.658   4.307  1.00 20.00    -0.188 F 
ENDROOT
BRANCH   1   4
HETATM    4  C1  UNL     1     -34.528   6.200   3.779  1.00 20.00     0.319 C 
HETATM    5  O4  UNL     1     -35.748   6.303   3.843  1.00 20.00    -0.300 OA
ENDBRANCH   1   4
BRANCH   1   6
HETATM    6  C3  UNL     1     -32.837   6.896   2.104  1.00 20.00     0.461 C 
HETATM    7  F7  UNL     1     -33.651   6.575   1.076  1.00 20.00    -0.165 F 
HETATM    8  F8  UNL     1     -32.034   7.902   1.693  1.00 20.00    -0.165 F 
HETATM    9  F9  UNL     1     -32.054   5.828   2.365  1.00 20.00    -0.165 F 
ENDBRANCH   1   6
TORSDOF 2
