REMARK  3 active torsions:
REMARK  status: ('A' for Active; 'I' for Inactive)
REMARK    1  A    between atoms: C5_5  and  C7_7 
REMARK    2  A    between atoms: C5_5  and  C8_8 
REMARK    3  A    between atoms: C6_6  and  C8_8 
ROOT
HETATM    1  C3  UNL     1     -31.815   5.175   2.774  1.00 20.00     0.016 C 
HETATM    2  C4  UNL     1     -32.184   5.643   0.346  1.00 20.00     0.016 C 
HETATM    3  C8  UNL     1     -32.349   6.218   1.771  1.00 20.00    -0.035 C 
ENDROOT
BRANCH   3   4
HETATM    4  C5  UNL     1     -33.880   6.435   2.000  1.00 20.00     0.013 C 
BRANCH   4   5
HETATM    5  C7  UNL     1     -34.384   6.376   3.462  1.00 20.00    -0.022 C 
HETATM    6  C1  UNL     1     -33.715   7.443   4.334  1.00 20.00     0.009 C 
HETATM    7  C2  UNL     1     -35.902   6.583   3.506  1.00 20.00     0.009 C 
ENDBRANCH   4   5
ENDBRANCH   3   4
BRANCH   3   8
HETATM    8  C6  UNL     1     -31.581   7.554   1.905  1.00 20.00     0.123 C 
HETATM    9 CL9  UNL     1     -32.120   8.827   0.775  1.00 20.00    -0.130 Cl
ENDBRANCH   3   8
TORSDOF 3
