REMARK  2 active torsions:
REMARK  status: ('A' for Active; 'I' for Inactive)
REMARK    1  A    between atoms: C1_1  and  C2_2 
REMARK    2  A    between atoms: C2_2  and  C3_3 
ROOT
HETATM    1  C3  UNL     1     -34.226   7.192   3.508  1.00 20.00     0.393 C 
HETATM    2  F5  UNL     1     -35.148   6.794   4.411  1.00 20.00    -0.171 F 
HETATM    3  F6  UNL     1     -33.248   7.836   4.183  1.00 20.00    -0.171 F 
HETATM    4  F7  UNL     1     -34.805   8.085   2.679  1.00 20.00    -0.171 F 
ENDROOT
BRANCH   1   5
HETATM    5  C2  UNL     1     -33.655   6.020   2.747  1.00 20.00     0.186 C 
BRANCH   5   6
HETATM    6  C1  UNL     1     -32.611   6.424   1.735  1.00 20.00     0.239 C 
HETATM    7  O4  UNL     1     -32.266   7.578   1.508  1.00 20.00    -0.307 OA
ENDBRANCH   5   6
ENDBRANCH   1   5
TORSDOF 2
