REMARK  0 active torsions:
REMARK  status: ('A' for Active; 'I' for Inactive)
ROOT
HETATM    1  C1  UNL     1     -33.607   7.485   4.269  1.00 20.00     0.044 C 
HETATM    2  C2  UNL     1     -33.192   6.517   1.975  1.00 20.00     0.044 C 
HETATM    3  C3  UNL     1     -34.110   6.535   3.189  1.00 20.00     0.087 C 
HETATM    4 CL4  UNL     1     -35.761   6.999   2.695  1.00 20.00    -0.107 Cl
HETATM    5 BR5  UNL     1     -34.187   4.724   3.939  1.00 20.00    -0.069 Br
ENDROOT
TORSDOF 0
