REMARK  3 active torsions:
REMARK  status: ('A' for Active; 'I' for Inactive)
REMARK    1  A    between atoms: C1_1  and  C3_3 
REMARK    2  A    between atoms: C1_1  and  O4_4 
REMARK    3  A    between atoms: C2_2  and  O4_4 
ROOT
HETATM    1  C1  UNL     1     -33.475   6.144   2.641  1.00 20.00     0.291 C 
ENDROOT
BRANCH   1   2
HETATM    2  C3  UNL     1     -34.401   5.984   3.819  1.00 20.00     0.408 C 
HETATM    3  F7  UNL     1     -33.910   6.627   4.901  1.00 20.00    -0.169 F 
HETATM    4  F8  UNL     1     -34.555   4.684   4.148  1.00 20.00    -0.169 F 
HETATM    5  F9  UNL     1     -35.622   6.497   3.555  1.00 20.00    -0.169 F 
ENDBRANCH   1   2
BRANCH   1   6
HETATM    6  O4  UNL     1     -33.334   7.525   2.346  1.00 20.00    -0.324 OA
BRANCH   6   7
HETATM    7  C2  UNL     1     -32.484   7.761   1.233  1.00 20.00     0.500 C 
HETATM    8  F5  UNL     1     -32.377   9.094   1.020  1.00 20.00    -0.185 F 
HETATM    9  F6  UNL     1     -31.246   7.281   1.499  1.00 20.00    -0.185 F 
ENDBRANCH   6   7
ENDBRANCH   1   6
TORSDOF 3
