REMARK  0 active torsions:
REMARK  status: ('A' for Active; 'I' for Inactive)
ROOT
HETATM    1  C1  UNL     1     -35.184   5.990   3.175  1.00 20.00     0.009 A 
HETATM    2  C2  UNL     1     -34.088   5.338   3.969  1.00 20.00     0.009 A 
HETATM    3  C3  UNL     1     -33.973   6.795   3.586  1.00 20.00    -0.048 A 
HETATM    4  C4  UNL     1     -32.980   7.169   2.521  1.00 20.00     0.015 C 
HETATM    5  C5  UNL     1     -34.145   7.824   4.670  1.00 20.00     0.015 C 
ENDROOT
TORSDOF 0
