REMARK  0 active torsions:
REMARK  status: ('A' for Active; 'I' for Inactive)
ROOT
HETATM    1  C1  UNL     1     -34.295   5.080   3.994  1.00 20.00     0.051 C 
HETATM    2  C2  UNL     1     -33.373   6.410   2.070  1.00 20.00     0.051 C 
HETATM    3  C3  UNL     1     -33.703   7.502   4.310  1.00 20.00     0.051 C 
HETATM    4  C4  UNL     1     -34.219   6.451   3.336  1.00 20.00     0.092 C 
HETATM    5  F5  UNL     1     -35.487   6.808   2.975  1.00 20.00    -0.244 F 
ENDROOT
TORSDOF 0
