REMARK  0 active torsions:
REMARK  status: ('A' for Active; 'I' for Inactive)
ROOT
HETATM    1  C1  UNL     1     -33.823   5.509   3.229  1.00 20.00    -0.089 C 
HETATM    2  C2  UNL     1     -32.543   7.841   2.120  1.00 20.00    -0.089 C 
HETATM    3  C3  UNL     1     -33.927   4.431   4.020  1.00 20.00     0.014 C 
HETATM    4  C4  UNL     1     -32.439   8.919   1.330  1.00 20.00     0.014 C 
HETATM    5  C5  UNL     1     -34.270   6.883   3.665  1.00 20.00     0.037 C 
HETATM    6  C6  UNL     1     -33.226   5.444   1.843  1.00 20.00     0.037 C 
HETATM    7  C7  UNL     1     -33.139   7.905   3.506  1.00 20.00     0.037 C 
HETATM    8  C8  UNL     1     -32.096   6.467   1.683  1.00 20.00     0.037 C 
ENDROOT
TORSDOF 0
