REMARK  2 active torsions:
REMARK  status: ('A' for Active; 'I' for Inactive)
REMARK    1  A    between atoms: C2_2  and  C3_3 
REMARK    2  A    between atoms: C2_2  and  C4_4 
ROOT
HETATM    1  C1  UNL     1     -33.063   5.812   1.912  1.00 20.00     0.016 C 
HETATM    2  C2  UNL     1     -33.404   6.849   2.694  1.00 20.00    -0.062 C 
ENDROOT
BRANCH   2   3
HETATM    3  C3  UNL     1     -32.614   8.129   2.666  1.00 20.00     0.149 C 
HETATM    4 CL5  UNL     1     -31.912   8.402   1.056  1.00 20.00    -0.126 Cl
ENDBRANCH   2   3
BRANCH   2   5
HETATM    5  C4  UNL     1     -34.583   6.763   3.622  1.00 20.00     0.149 C 
HETATM    6 CL6  UNL     1     -34.825   5.093   4.181  1.00 20.00    -0.126 Cl
ENDBRANCH   2   5
TORSDOF 2
