REMARK  1 active torsions:
REMARK  status: ('A' for Active; 'I' for Inactive)
REMARK    1  A    between atoms: C4_4  and  C8_8 
ROOT
HETATM    1  C1  UNL     1     -35.120   4.956   4.236  1.00 20.00    -0.007 C 
HETATM    2  C2  UNL     1     -33.866   4.624   3.901  1.00 20.00     0.009 C 
HETATM    3  C5  UNL     1     -35.726   6.285   3.897  1.00 20.00     0.029 C 
HETATM    4  C6  UNL     1     -32.924   5.549   3.185  1.00 20.00     0.061 C 
HETATM    5  C7  UNL     1     -34.907   7.085   2.879  1.00 20.00     0.014 C 
HETATM    6  C8  UNL     1     -33.405   7.014   3.191  1.00 20.00     0.035 C 
HETATM    7 CL9  UNL     1     -33.231   3.068   4.303  1.00 20.00    -0.089 Cl
ENDROOT
BRANCH   6   8
HETATM    8  C4  UNL     1     -32.612   7.841   2.225  1.00 20.00     0.007 C 
HETATM    9  C3  UNL     1     -32.784   9.154   2.035  1.00 20.00     0.032 C 
HETATM   10 CL10 UNL     1     -31.410   6.981   1.326  1.00 20.00    -0.089 Cl
ENDBRANCH   6   8
TORSDOF 1
