REMARK  2 active torsions:
REMARK  status: ('A' for Active; 'I' for Inactive)
REMARK    1  A    between atoms: C6_6  and  C7_7 
REMARK    2  A    between atoms: C7_7  and  O8_8 
ROOT
HETATM    1  C1  UNL     1     -32.032   7.996   1.419  1.00 20.00     0.015 C 
HETATM    2  C2  UNL     1     -32.715   7.207   2.014  1.00 20.00    -0.079 C 
HETATM    3  C5  UNL     1     -32.657   5.369   3.642  1.00 20.00     0.061 C 
HETATM    4  C7  UNL     1     -33.551   6.232   2.742  1.00 20.00     0.119 C 
ENDROOT
BRANCH   4   5
HETATM    5  C6  UNL     1     -34.696   6.920   3.542  1.00 20.00     0.024 C 
HETATM    6  C3  UNL     1     -35.612   5.940   4.286  1.00 20.00     0.014 C 
HETATM    7  C4  UNL     1     -34.175   7.981   4.525  1.00 20.00     0.014 C 
ENDBRANCH   4   5
BRANCH   4   8
HETATM    8  O8  UNL     1     -34.139   5.351   1.777  1.00 20.00    -0.378 OA
HETATM    9  H20 UNL     1     -33.401   4.922   1.320  1.00 20.00     0.211 HD
ENDBRANCH   4   8
TORSDOF 2
