REMARK  3 active torsions:
REMARK  status: ('A' for Active; 'I' for Inactive)
REMARK    1  A    between atoms: C2_2  and  C7_7 
REMARK    2  A    between atoms: C5_5  and  C6_6 
REMARK    3  A    between atoms: C6_6  and  C7_7 
ROOT
HETATM    1  C4  UNL     1     -33.424   5.814   1.392  1.00 20.00     0.012 C 
HETATM    2  C7  UNL     1     -32.971   6.899   2.371  1.00 20.00     0.012 C 
ENDROOT
BRANCH   2   3
HETATM    3  C2  UNL     1     -33.771   6.787   3.671  1.00 20.00     0.149 A 
HETATM    4  C1  UNL     1     -34.352   5.474   4.116  1.00 20.00     0.200 A 
HETATM    5  O8  UNL     1     -35.159   6.486   3.492  1.00 20.00    -0.381 OA
ENDBRANCH   2   3
BRANCH   2   6
HETATM    6  C6  UNL     1     -33.120   8.316   1.787  1.00 20.00     0.006 C 
BRANCH   6   7
HETATM    7  C5  UNL     1     -32.054   8.661   0.745  1.00 20.00    -0.004 C 
HETATM    8  C3  UNL     1     -32.288  10.042   0.149  1.00 20.00     0.005 C 
ENDBRANCH   6   7
ENDBRANCH   2   6
TORSDOF 3
