REMARK  3 active torsions:
REMARK  status: ('A' for Active; 'I' for Inactive)
REMARK    1  A    between atoms: C1_1  and  C2_2 
REMARK    2  A    between atoms: C4_4  and  C6_6 
REMARK    3  A    between atoms: C6_6  and  O7_7 
ROOT
HETATM    1  C2  UNL     1     -33.649   6.475   2.684  1.00 20.00    -0.002 C 
HETATM    2  C4  UNL     1     -34.090   7.231   3.700  1.00 20.00    -0.001 C 
ENDROOT
BRANCH   1   3
HETATM    3  C1  UNL     1     -32.530   6.847   1.849  1.00 20.00    -0.005 C 
HETATM    4  C3  UNL     1     -32.313   8.102   1.429  1.00 20.00    -0.031 C 
HETATM    5  C5  UNL     1     -31.160   8.500   0.567  1.00 20.00     0.036 C 
ENDBRANCH   1   3
BRANCH   2   6
HETATM    6  C6  UNL     1     -35.245   6.852   4.571  1.00 20.00     0.191 C 
BRANCH   6   7
HETATM    7  O7  UNL     1     -35.794   5.618   4.129  1.00 20.00    -0.397 OA
HETATM    8  H17 UNL     1     -36.536   5.414   4.721  1.00 20.00     0.209 HD
ENDBRANCH   6   7
ENDBRANCH   2   6
TORSDOF 3
