REMARK  0 active torsions:
REMARK  status: ('A' for Active; 'I' for Inactive)
ROOT
HETATM    1  C1  UNL     1     -32.991   5.805   2.200  1.00 20.00     0.002 C 
HETATM    2  C2  UNL     1     -33.570   6.778   3.229  1.00 20.00     0.002 C 
HETATM    3  C3  UNL     1     -31.933   6.589   1.421  1.00 20.00     0.032 C 
HETATM    4  C4  UNL     1     -32.840   8.106   3.019  1.00 20.00     0.032 C 
HETATM    5  C5  UNL     1     -31.806  10.425   0.352  1.00 20.00     0.086 C 
HETATM    6  C6  UNL     1     -32.740   9.690  -0.585  1.00 20.00     0.086 C 
HETATM    7  C7  UNL     1     -32.338   8.057   1.574  1.00 20.00     0.056 C 
HETATM    8  S8  UNL     1     -30.921   9.175   1.314  1.00 20.00    -0.147 SA
HETATM    9  S9  UNL     1     -33.683   8.500   0.401  1.00 20.00    -0.147 SA
ENDROOT
TORSDOF 0
