REMARK  2 active torsions:
REMARK  status: ('A' for Active; 'I' for Inactive)
REMARK    1  A    between atoms: C7_7  and  O9_9 
REMARK    2  A    between atoms: C8_8  and  O9_9 
ROOT
HETATM    1  O9  UNL     1     -33.281   5.921   3.037  1.00 20.00    -0.371 OA
ENDROOT
BRANCH   1   2
HETATM    2  C7  UNL     1     -32.719   6.576   1.900  1.00 20.00     0.051 C 
HETATM    3  C1  UNL     1     -32.244   7.965   2.323  1.00 20.00     0.045 C 
HETATM    4  C2  UNL     1     -31.543   5.730   1.416  1.00 20.00     0.045 C 
HETATM    5  C3  UNL     1     -33.791   6.674   0.816  1.00 20.00     0.045 C 
ENDBRANCH   1   2
BRANCH   1   6
HETATM    6  C8  UNL     1     -34.382   6.648   3.558  1.00 20.00     0.051 C 
HETATM    7  C4  UNL     1     -35.058   7.396   2.409  1.00 20.00     0.045 C 
HETATM    8  C5  UNL     1     -35.345   5.640   4.182  1.00 20.00     0.045 C 
HETATM    9  C6  UNL     1     -33.866   7.623   4.615  1.00 20.00     0.045 C 
ENDBRANCH   1   6
TORSDOF 2
