REMARK  2 active torsions:
REMARK  status: ('A' for Active; 'I' for Inactive)
REMARK    1  A    between atoms: C1_1  and  C2_2 
REMARK    2  A    between atoms: C1_1  and  C3_3 
ROOT
HETATM    1  C1  UNL     1     -33.702   5.944   2.774  1.00 20.00     0.173 C 
HETATM    2  O4  UNL     1     -33.708   4.748   3.066  1.00 20.00    -0.294 OA
ENDROOT
BRANCH   1   3
HETATM    3  C2  UNL     1     -34.398   6.997   3.611  1.00 20.00     0.195 C 
HETATM    4 CL5  UNL     1     -35.790   6.306   4.458  1.00 20.00    -0.122 Cl
ENDBRANCH   1   3
BRANCH   1   5
HETATM    5  C3  UNL     1     -33.023   6.451   1.521  1.00 20.00     0.248 C 
HETATM    6 CL6  UNL     1     -31.649   5.392   1.185  1.00 20.00    -0.100 Cl
HETATM    7 CL7  UNL     1     -32.507   8.124   1.774  1.00 20.00    -0.100 Cl
ENDBRANCH   1   5
TORSDOF 2
