REMARK  3 active torsions:
REMARK  status: ('A' for Active; 'I' for Inactive)
REMARK    1  A    between atoms: C2_2  and  C7_7 
REMARK    2  A    between atoms: C5_5  and  C6_6 
REMARK    3  A    between atoms: C6_6  and  C7_7 
ROOT
HETATM    1  C4  UNL     1     -32.229   5.899   1.481  1.00 20.00     0.012 C 
HETATM    2  C7  UNL     1     -33.083   6.996   2.118  1.00 20.00     0.012 C 
ENDROOT
BRANCH   2   3
HETATM    3  C2  UNL     1     -33.812   6.437   3.343  1.00 20.00     0.149 A 
HETATM    4  C1  UNL     1     -35.257   6.756   3.602  1.00 20.00     0.200 A 
HETATM    5  O8  UNL     1     -34.849   5.498   3.041  1.00 20.00    -0.381 OA
ENDBRANCH   2   3
BRANCH   2   6
HETATM    6  C6  UNL     1     -32.254   8.229   2.522  1.00 20.00     0.006 C 
BRANCH   6   7
HETATM    7  C5  UNL     1     -31.540   8.896   1.344  1.00 20.00    -0.004 C 
HETATM    8  C3  UNL     1     -32.526   9.308   0.260  1.00 20.00     0.005 C 
ENDBRANCH   6   7
ENDBRANCH   2   6
TORSDOF 3
