REMARK  2 active torsions:
REMARK  status: ('A' for Active; 'I' for Inactive)
REMARK    1  A    between atoms: C1_1  and  C3_3 
REMARK    2  A    between atoms: C2_2  and  C3_3 
ROOT
HETATM    1  C3  UNL     1     -33.867   6.049   2.971  1.00 20.00     0.187 C 
HETATM    2 BR7  UNL     1     -33.752   7.604   4.157  1.00 20.00    -0.077 Br
ENDROOT
BRANCH   1   3
HETATM    3  C1  UNL     1     -32.832   6.299   1.871  1.00 20.00     0.190 C 
HETATM    4  O4  UNL     1     -32.409   5.254   1.296  1.00 20.00    -0.647 OA
HETATM    5  O5  UNL     1     -32.508   7.503   1.673  1.00 20.00    -0.647 OA
ENDBRANCH   1   3
BRANCH   1   6
HETATM    6  C2  UNL     1     -33.701   4.786   3.792  1.00 20.00     0.248 C 
HETATM    7  F6  UNL     1     -34.675   4.705   4.739  1.00 20.00    -0.254 F 
ENDBRANCH   1   6
TORSDOF 2
