REMARK  3 active torsions:
REMARK  status: ('A' for Active; 'I' for Inactive)
REMARK    1  A    between atoms: C1_1  and  C5_5 
REMARK    2  A    between atoms: C1_1  and  O8_8 
REMARK    3  A    between atoms: C6_6  and  O8_8 
ROOT
HETATM    1  O8  UNL     1     -33.356   5.665   2.869  1.00 20.00    -0.310 OA
ENDROOT
BRANCH   1   2
HETATM    2  C1  UNL     1     -34.427   6.120   3.590  1.00 20.00     0.273 C 
HETATM    3  O7  UNL     1     -34.883   7.254   3.545  1.00 20.00    -0.264 OA
BRANCH   2   4
HETATM    4  C5  UNL     1     -34.944   4.992   4.441  1.00 20.00     0.225 C 
HETATM    5 CL9  UNL     1     -33.991   3.526   4.156  1.00 20.00    -0.120 Cl
ENDBRANCH   2   4
ENDBRANCH   1   2
BRANCH   1   6
HETATM    6  C6  UNL     1     -32.743   6.620   2.002  1.00 20.00     0.060 C 
HETATM    7  C2  UNL     1     -32.244   7.792   2.845  1.00 20.00     0.045 C 
HETATM    8  C3  UNL     1     -31.577   5.925   1.303  1.00 20.00     0.045 C 
HETATM    9  C4  UNL     1     -33.781   7.086   0.982  1.00 20.00     0.045 C 
ENDBRANCH   1   6
TORSDOF 3
