REMARK  2 active torsions:
REMARK  status: ('A' for Active; 'I' for Inactive)
REMARK    1  A    between atoms: C2_2  and  C3_3 
REMARK    2  A    between atoms: C3_3  and  O4_4 
ROOT
HETATM    1  C3  UNL     1     -33.362   7.677   3.244  1.00 20.00     0.398 C 
HETATM    2  F6  UNL     1     -34.101   8.777   2.965  1.00 20.00    -0.171 F 
HETATM    3  F7  UNL     1     -32.825   7.845   4.479  1.00 20.00    -0.171 F 
ENDROOT
BRANCH   1   4
HETATM    4  C2  UNL     1     -32.246   7.516   2.236  1.00 20.00     0.367 C 
HETATM    5  F5  UNL     1     -32.362   6.295   1.650  1.00 20.00    -0.223 F 
HETATM    6 CL8  UNL     1     -32.324   8.761   0.970  1.00 20.00    -0.080 Cl
ENDBRANCH   1   4
BRANCH   1   7
HETATM    7  O4  UNL     1     -34.201   6.528   3.266  1.00 20.00    -0.328 OA
HETATM    8  C1  UNL     1     -35.263   6.644   4.203  1.00 20.00     0.208 C 
ENDBRANCH   1   7
TORSDOF 2
