REMARK  3 active torsions:
REMARK  status: ('A' for Active; 'I' for Inactive)
REMARK    1  A    between atoms: C1_1  and  C5_5 
REMARK    2  A    between atoms: C2_2  and  C6_6 
REMARK    3  A    between atoms: C6_6  and  C7_7 
ROOT
HETATM    1  C1  UNL     1     -34.231   6.961   2.529  1.00 20.00     0.150 A 
HETATM    2  C2  UNL     1     -34.815   6.325   3.767  1.00 20.00     0.151 A 
HETATM    3  O8  UNL     1     -34.347   7.680   3.765  1.00 20.00    -0.376 OA
ENDROOT
BRANCH   2   4
HETATM    4  C6  UNL     1     -34.032   5.382   4.667  1.00 20.00     0.034 C 
BRANCH   4   5
HETATM    5  C7  UNL     1     -34.042   3.954   4.125  1.00 20.00    -0.002 C 
HETATM    6  C4  UNL     1     -33.236   3.016   5.009  1.00 20.00     0.005 C 
ENDBRANCH   4   5
ENDBRANCH   2   4
BRANCH   1   7
HETATM    7  C5  UNL     1     -32.836   6.726   2.073  1.00 20.00     0.030 C 
HETATM    8  C3  UNL     1     -32.141   7.986   1.617  1.00 20.00     0.007 C 
ENDBRANCH   1   7
TORSDOF 3
