REMARK  2 active torsions:
REMARK  status: ('A' for Active; 'I' for Inactive)
REMARK    1  A    between atoms: C5_5  and  C7_7 
REMARK    2  A    between atoms: C7_7  and  C8_8 
ROOT
HETATM    1  C1  UNL     1     -32.044   7.614   1.328  1.00 20.00    -0.030 C 
HETATM    2  C2  UNL     1     -32.800   8.099   2.318  1.00 20.00    -0.026 C 
HETATM    3  C3  UNL     1     -32.046   6.122   1.308  1.00 20.00     0.027 C 
HETATM    4  C4  UNL     1     -33.213   5.774   2.232  1.00 20.00     0.012 C 
HETATM    5  C5  UNL     1     -33.427   7.004   3.126  1.00 20.00     0.008 C 
ENDROOT
BRANCH   5   6
HETATM    6  C7  UNL     1     -34.897   7.251   3.428  1.00 20.00     0.008 C 
BRANCH   6   7
HETATM    7  C8  UNL     1     -35.380   6.391   4.594  1.00 20.00    -0.004 C 
HETATM    8  C6  UNL     1     -35.244   4.908   4.286  1.00 20.00     0.005 C 
ENDBRANCH   6   7
ENDBRANCH   5   6
TORSDOF 2
