REMARK  0 active torsions:
REMARK  status: ('A' for Active; 'I' for Inactive)
ROOT
HETATM    1  C1  UNL     1     -33.023   7.273   2.585  1.00 20.00    -0.011 C 
HETATM    2  C2  UNL     1     -32.834   6.182   1.584  1.00 20.00     0.155 C 
HETATM    3  C3  UNL     1     -33.795   7.027   3.651  1.00 20.00    -0.078 C 
HETATM    4  C4  UNL     1     -32.356   8.588   2.316  1.00 20.00     0.042 C 
HETATM    5  C5  UNL     1     -32.745   6.596   0.130  1.00 20.00     0.083 C 
HETATM    6  C6  UNL     1     -32.479   8.998   0.851  1.00 20.00     0.005 C 
HETATM    7  C7  UNL     1     -31.966   7.891  -0.065  1.00 20.00     0.008 C 
HETATM    8  C8  UNL     1     -34.044   8.061   4.709  1.00 20.00     0.043 C 
HETATM    9  C9  UNL     1     -34.463   5.698   3.859  1.00 20.00     0.043 C 
HETATM   10  O10 UNL     1     -32.827   4.998   1.914  1.00 20.00    -0.293 OA
ENDROOT
TORSDOF 0
