REMARK  0 active torsions:
REMARK  status: ('A' for Active; 'I' for Inactive)
ROOT
HETATM    1  C1  UNL     1     -33.628   5.517   2.071  1.00 20.00     0.003 C 
HETATM    2  C2  UNL     1     -32.523   5.351   1.337  1.00 20.00    -0.025 C 
HETATM    3  C3  UNL     1     -33.802   6.665   2.948  1.00 20.00    -0.059 C 
HETATM    4  C4  UNL     1     -33.016   7.762   2.810  1.00 20.00    -0.070 C 
HETATM    5  C5  UNL     1     -31.416   6.357   1.370  1.00 20.00     0.040 C 
HETATM    6  C6  UNL     1     -31.888   7.794   1.751  1.00 20.00    -0.021 C 
HETATM    7  C7  UNL     1     -34.908   6.498   3.954  1.00 20.00     0.048 C 
HETATM    8  C8  UNL     1     -33.217   9.020   3.620  1.00 20.00     0.044 C 
HETATM    9  C9  UNL     1     -30.641   8.560   2.243  1.00 20.00     0.020 C 
HETATM   10  C10 UNL     1     -32.428   8.500   0.486  1.00 20.00     0.020 C 
ENDROOT
TORSDOF 0
