REMARK  0 active torsions:
REMARK  status: ('A' for Active; 'I' for Inactive)
ROOT
HETATM    1  C1  UNL     1     -32.241   7.911   0.785  1.00 20.00     0.053 A 
HETATM    2  C2  UNL     1     -32.451   7.128   1.845  1.00 20.00    -0.072 A 
HETATM    3  C3  UNL     1     -32.571   9.271   1.231  1.00 20.00     0.150 A 
HETATM    4  C4  UNL     1     -32.335   5.640   1.903  1.00 20.00     0.034 C 
HETATM    5  C5  UNL     1     -33.042   9.300   2.659  1.00 20.00     0.092 A 
HETATM    6  C6  UNL     1     -33.632   5.033   2.445  1.00 20.00     0.004 C 
HETATM    7  C7  UNL     1     -34.091   5.704   3.745  1.00 20.00     0.001 C 
HETATM    8  C8  UNL     1     -34.223   7.223   3.585  1.00 20.00     0.009 C 
HETATM    9  C9  UNL     1     -32.913   7.838   3.086  1.00 20.00     0.022 A 
HETATM   10  O10 UNL     1     -32.477  10.251   0.507  1.00 20.00    -0.293 OA
ENDROOT
TORSDOF 0
