REMARK  3 active torsions:
REMARK  status: ('A' for Active; 'I' for Inactive)
REMARK    1  A    between atoms: C2_2  and  C6_6 
REMARK    2  A    between atoms: C6_6  and  O9_9 
REMARK    3  A    between atoms: C7_7  and  O9_9 
ROOT
HETATM    1  O9  UNL     1     -32.456   7.143   1.944  1.00 20.00    -0.379 OA
ENDROOT
BRANCH   1   2
HETATM    2  C6  UNL     1     -33.298   8.119   1.350  1.00 20.00     0.202 C 
BRANCH   2   3
HETATM    3  C2  UNL     1     -32.510   9.397   1.155  1.00 20.00     0.169 A 
HETATM    4  C1  UNL     1     -32.951  10.440   0.167  1.00 20.00     0.202 A 
HETATM    5  O8  UNL     1     -31.886   9.522  -0.127  1.00 20.00    -0.379 OA
ENDBRANCH   2   3
ENDBRANCH   1   2
BRANCH   1   6
HETATM    6  C7  UNL     1     -33.153   5.914   2.150  1.00 20.00     0.050 C 
HETATM    7  C3  UNL     1     -33.638   5.397   0.796  1.00 20.00     0.045 C 
HETATM    8  C4  UNL     1     -32.172   4.929   2.781  1.00 20.00     0.045 C 
HETATM    9  C5  UNL     1     -34.331   6.174   3.087  1.00 20.00     0.045 C 
ENDBRANCH   1   6
TORSDOF 3
