REMARK  1 active torsions:
REMARK  status: ('A' for Active; 'I' for Inactive)
REMARK    1  A    between atoms: C5_5  and  O10_10 
ROOT
HETATM    1  C1  UNL     1     -33.566   5.672   2.305  1.00 20.00     0.007 C 
HETATM    2  C2  UNL     1     -33.876   6.693   3.122  1.00 20.00    -0.084 C 
HETATM    3  C3  UNL     1     -33.062   7.964   3.159  1.00 20.00     0.042 C 
HETATM    4  C4  UNL     1     -31.431   6.852   1.584  1.00 20.00     0.045 C 
HETATM    5  C5  UNL     1     -32.382   5.664   1.384  1.00 20.00     0.142 C 
HETATM    6  C6  UNL     1     -32.155   8.178   1.921  1.00 20.00    -0.042 C 
HETATM    7  C7  UNL     1     -35.046   6.630   4.060  1.00 20.00     0.043 C 
HETATM    8  C8  UNL     1     -31.104   9.256   2.244  1.00 20.00     0.015 C 
HETATM    9  C9  UNL     1     -32.992   8.677   0.725  1.00 20.00     0.015 C 
ENDROOT
BRANCH   5  10
HETATM   10  O10 UNL     1     -32.836   5.648   0.032  1.00 20.00    -0.392 OA
HETATM   11  H26 UNL     1     -33.362   4.840  -0.071  1.00 20.00     0.210 HD
ENDBRANCH   5  10
TORSDOF 1
