REMARK  2 active torsions:
REMARK  status: ('A' for Active; 'I' for Inactive)
REMARK    1  A    between atoms: C1_1  and  C5_5 
REMARK    2  A    between atoms: C1_1  and  C6_6 
ROOT
HETATM    1  C1  UNL     1     -33.464   5.788   2.709  1.00 20.00     0.167 C 
HETATM    2  O7  UNL     1     -32.856   4.807   3.146  1.00 20.00    -0.294 OA
ENDROOT
BRANCH   1   3
HETATM    3  C5  UNL     1     -33.030   6.446   1.414  1.00 20.00     0.248 C 
HETATM    4 CL8  UNL     1     -32.318   5.202   0.374  1.00 20.00    -0.100 Cl
HETATM    5 CL9  UNL     1     -31.852   7.709   1.804  1.00 20.00    -0.100 Cl
ENDBRANCH   1   3
BRANCH   1   6
HETATM    6  C6  UNL     1     -34.677   6.378   3.459  1.00 20.00     0.012 C 
HETATM    7  C2  UNL     1     -35.649   7.014   2.448  1.00 20.00     0.022 C 
HETATM    8  C3  UNL     1     -35.416   5.262   4.209  1.00 20.00     0.022 C 
HETATM    9  C4  UNL     1     -34.208   7.465   4.434  1.00 20.00     0.022 C 
ENDBRANCH   1   6
TORSDOF 2
