REMARK  4 active torsions:
REMARK  status: ('A' for Active; 'I' for Inactive)
REMARK    1  A    between atoms: C5_5  and  C6_6 
REMARK    2  A    between atoms: C6_6  and  C9_9 
REMARK    3  A    between atoms: C7_7  and  C8_8 
REMARK    4  A    between atoms: C7_7  and  C9_9 
ROOT
HETATM    1  C4  UNL     1     -31.927   6.006   1.409  1.00 20.00     0.010 C 
HETATM    2  C9  UNL     1     -32.632   7.365   1.493  1.00 20.00    -0.018 C 
ENDROOT
BRANCH   2   3
HETATM    3  C6  UNL     1     -31.797   8.408   0.714  1.00 20.00     0.004 C 
BRANCH   3   4
HETATM    4  C5  UNL     1     -32.593   9.643   0.287  1.00 20.00    -0.004 C 
HETATM    5  C1  UNL     1     -31.725  10.618  -0.496  1.00 20.00     0.005 C 
ENDBRANCH   3   4
ENDBRANCH   2   3
BRANCH   2   6
HETATM    6  C7  UNL     1     -32.863   7.802   2.957  1.00 20.00     0.008 C 
BRANCH   6   7
HETATM    7  C8  UNL     1     -33.769   6.885   3.805  1.00 20.00    -0.022 C 
HETATM    8  C2  UNL     1     -35.159   6.800   3.166  1.00 20.00     0.009 C 
HETATM    9  C3  UNL     1     -33.896   7.366   5.250  1.00 20.00     0.009 C 
ENDBRANCH   6   7
ENDBRANCH   2   6
TORSDOF 4
