REMARK  0 active torsions:
REMARK  status: ('A' for Active; 'I' for Inactive)
ROOT
HETATM    1  C1  UNL     1     -32.645   8.050   2.523  1.00 20.00     0.117 C 
HETATM    2  C2  UNL     1     -34.815   6.528   3.513  1.00 20.00     0.117 C 
HETATM    3  C3  UNL     1     -32.272   8.671   1.184  1.00 20.00     0.033 C 
HETATM    4  C4  UNL     1     -34.979   5.167   4.175  1.00 20.00     0.033 C 
HETATM    5  S5  UNL     1     -33.490   6.441   2.242  1.00 20.00    -0.137 SA
HETATM    6  S6  UNL     1     -33.705   9.180   3.460  1.00 20.00    -0.081 SA
HETATM    7  S7  UNL     1     -34.432   7.784   4.759  1.00 20.00    -0.081 SA
ENDROOT
TORSDOF 0
