REMARK  2 active torsions:
REMARK  status: ('A' for Active; 'I' for Inactive)
REMARK    1  A    between atoms: C1_1  and  C2_2 
REMARK    2  A    between atoms: C2_2  and  C3_3 
ROOT
HETATM    1  C2  UNL     1     -32.898   7.789   3.517  1.00 20.00     0.203 C 
HETATM    2 CL8  UNL     1     -32.021   9.309   3.878  1.00 20.00    -0.115 Cl
ENDROOT
BRANCH   1   3
HETATM    3  C1  UNL     1     -34.389   7.941   3.813  1.00 20.00     0.143 C 
HETATM    4 CL7  UNL     1     -35.179   6.365   4.081  1.00 20.00    -0.129 Cl
ENDBRANCH   1   3
BRANCH   1   5
HETATM    5  C3  UNL     1     -32.662   7.420   2.063  1.00 20.00     0.405 C 
HETATM    6  F4  UNL     1     -33.227   6.235   1.746  1.00 20.00    -0.169 F 
HETATM    7  F5  UNL     1     -33.185   8.357   1.239  1.00 20.00    -0.169 F 
HETATM    8  F6  UNL     1     -31.341   7.337   1.786  1.00 20.00    -0.169 F 
ENDBRANCH   1   5
TORSDOF 2
