REMARK  2 active torsions:
REMARK  status: ('A' for Active; 'I' for Inactive)
REMARK    1  A    between atoms: C1_1  and  C2_2 
REMARK    2  A    between atoms: C1_1  and  C3_3 
ROOT
HETATM    1  C1  UNL     1     -33.982   7.428   2.059  1.00 20.00     0.153 C 
ENDROOT
BRANCH   1   2
HETATM    2  C2  UNL     1     -32.514   7.678   1.713  1.00 20.00     0.186 C 
HETATM    3 CL7  UNL     1     -32.320   8.920   0.450  1.00 20.00    -0.108 Cl
HETATM    4 CL8  UNL     1     -31.758   6.162   1.150  1.00 20.00    -0.108 Cl
ENDBRANCH   1   2
BRANCH   1   5
HETATM    5  C3  UNL     1     -34.195   6.757   3.404  1.00 20.00     0.390 C 
HETATM    6  F4  UNL     1     -33.608   5.542   3.444  1.00 20.00    -0.171 F 
HETATM    7  F5  UNL     1     -33.709   7.491   4.424  1.00 20.00    -0.171 F 
HETATM    8  F6  UNL     1     -35.517   6.578   3.631  1.00 20.00    -0.171 F 
ENDBRANCH   1   5
TORSDOF 2
