REMARK  0 active torsions:
REMARK  status: ('A' for Active; 'I' for Inactive)
ROOT
HETATM    1  C1  UNL     1     -32.668   5.868   2.365  1.00 20.00    -0.013 A 
HETATM    2  C2  UNL     1     -33.520   5.416   3.295  1.00 20.00    -0.070 A 
HETATM    3  C3  UNL     1     -32.747   7.340   2.421  1.00 20.00     0.160 A 
HETATM    4  C4  UNL     1     -34.262   6.497   4.051  1.00 20.00     0.022 A 
HETATM    5  C5  UNL     1     -33.709   7.815   3.479  1.00 20.00     0.064 A 
HETATM    6  C6  UNL     1     -31.767   5.168   1.418  1.00 20.00     0.052 C 
HETATM    7  C7  UNL     1     -33.762   3.986   3.654  1.00 20.00     0.044 C 
HETATM    8  C8  UNL     1     -35.776   6.406   3.860  1.00 20.00     0.015 C 
HETATM    9  C9  UNL     1     -32.986   8.652   4.524  1.00 20.00     0.019 C 
HETATM   10  O10 UNL     1     -32.092   8.076   1.697  1.00 20.00    -0.292 OA
ENDROOT
TORSDOF 0
