REMARK  2 active torsions:
REMARK  status: ('A' for Active; 'I' for Inactive)
REMARK    1  A    between atoms: C1_1  and  C6_6 
REMARK    2  A    between atoms: C6_6  and  O8_8 
ROOT
HETATM    1  C3  UNL     1     -33.179   7.437   4.258  1.00 20.00     0.054 C 
HETATM    2  C4  UNL     1     -34.986   7.634   2.530  1.00 20.00     0.054 C 
HETATM    3  C6  UNL     1     -33.777   6.825   2.990  1.00 20.00     0.112 C 
ENDROOT
BRANCH   3   4
HETATM    4  C1  UNL     1     -32.737   6.754   1.866  1.00 20.00     0.156 C 
HETATM    5  C2  UNL     1     -32.119   8.048   1.392  1.00 20.00     0.094 C 
HETATM    6  O7  UNL     1     -32.382   5.681   1.375  1.00 20.00    -0.295 OA
ENDBRANCH   3   4
BRANCH   3   7
HETATM    7  O8  UNL     1     -34.213   5.507   3.294  1.00 20.00    -0.378 OA
HETATM    8  C5  UNL     1     -35.182   5.504   4.333  1.00 20.00     0.203 C 
ENDBRANCH   3   7
TORSDOF 2
