REMARK  0 active torsions:
REMARK  status: ('A' for Active; 'I' for Inactive)
ROOT
HETATM    1  C1  UNL     1     -33.125   5.642   3.268  1.00 20.00     0.050 C 
HETATM    2  C2  UNL     1     -34.492   5.502   3.910  1.00 20.00     0.171 C 
HETATM    3  C3  UNL     1     -33.240   7.007   2.631  1.00 20.00     0.128 C 
HETATM    4  C4  UNL     1     -34.032   7.784   3.675  1.00 20.00     0.235 C 
HETATM    5  O5  UNL     1     -34.942   6.826   4.246  1.00 20.00    -0.369 OA
HETATM    6 CL6  UNL     1     -31.683   7.695   2.164  1.00 20.00    -0.121 Cl
HETATM    7 CL7  UNL     1     -33.052   8.446   5.013  1.00 20.00    -0.094 Cl
ENDROOT
TORSDOF 0
