REMARK  0 active torsions:
REMARK  status: ('A' for Active; 'I' for Inactive)
ROOT
HETATM    1  C1  UNL     1     -34.030   5.365   3.622  1.00 20.00     0.000 C 
HETATM    2  C2  UNL     1     -34.310   6.540   4.554  1.00 20.00     0.000 C 
HETATM    3  C3  UNL     1     -33.848   5.724   2.148  1.00 20.00     0.004 C 
HETATM    4  C4  UNL     1     -33.289   7.677   4.500  1.00 20.00     0.004 C 
HETATM    5  C5  UNL     1     -32.518   6.432   1.875  1.00 20.00     0.049 C 
HETATM    6  C6  UNL     1     -33.390   8.491   3.211  1.00 20.00     0.049 C 
HETATM    7  C7  UNL     1     -32.505   9.715   0.469  1.00 20.00     0.180 C 
HETATM    8  C8  UNL     1     -31.008   9.498   0.574  1.00 20.00     0.103 C 
HETATM    9  C9  UNL     1     -32.569   7.960   2.023  1.00 20.00     0.108 C 
HETATM   10  O10 UNL     1     -33.159   8.488   0.812  1.00 20.00    -0.369 OA
HETATM   11  S11 UNL     1     -30.844   8.588   2.116  1.00 20.00    -0.129 SA
ENDROOT
TORSDOF 0
