REMARK  2 active torsions:
REMARK  status: ('A' for Active; 'I' for Inactive)
REMARK    1  A    between atoms: C1_1  and  C2_2 
REMARK    2  A    between atoms: C1_1  and  C3_3 
ROOT
HETATM    1  C1  UNL     1     -34.062   7.388   2.222  1.00 20.00     0.234 C 
ENDROOT
BRANCH   1   2
HETATM    2  C2  UNL     1     -32.597   7.519   1.869  1.00 20.00     0.396 C 
HETATM    3  F4  UNL     1     -31.916   8.185   2.826  1.00 20.00    -0.171 F 
HETATM    4  F5  UNL     1     -32.032   6.299   1.738  1.00 20.00    -0.171 F 
HETATM    5  F6  UNL     1     -32.427   8.176   0.702  1.00 20.00    -0.171 F 
ENDBRANCH   1   2
BRANCH   1   6
HETATM    6  C3  UNL     1     -34.283   6.607   3.498  1.00 20.00     0.396 C 
HETATM    7  F7  UNL     1     -35.604   6.486   3.756  1.00 20.00    -0.171 F 
HETATM    8  F8  UNL     1     -33.714   7.220   4.558  1.00 20.00    -0.171 F 
HETATM    9  F9  UNL     1     -33.769   5.362   3.410  1.00 20.00    -0.171 F 
ENDBRANCH   1   6
TORSDOF 2
