REMARK  0 active torsions:
REMARK  status: ('A' for Active; 'I' for Inactive)
ROOT
HETATM    1  C1  UNL     1     -32.707   9.027   1.064  1.00 20.00    -0.007 C 
HETATM    2  C2  UNL     1     -33.783   8.833   2.106  1.00 20.00     0.056 C 
HETATM    3  C3  UNL     1     -30.956   7.977   2.342  1.00 20.00     0.011 C 
HETATM    4  C4  UNL     1     -31.998   7.705   3.451  1.00 20.00     0.011 C 
HETATM    5  C5  UNL     1     -31.780   7.825   1.047  1.00 20.00     0.034 C 
HETATM    6  C6  UNL     1     -33.312   7.451   2.653  1.00 20.00    -0.032 C 
HETATM    7  C7  UNL     1     -32.795   6.701   1.383  1.00 20.00    -0.032 C 
HETATM    8  C8  UNL     1     -34.381   6.753   3.472  1.00 20.00     0.016 C 
HETATM    9  C9  UNL     1     -32.137   5.333   1.653  1.00 20.00     0.016 C 
HETATM   10  C10 UNL     1     -33.844   6.467   0.276  1.00 20.00     0.016 C 
HETATM   11  S11 UNL     1     -32.555  10.370   0.097  1.00 20.00    -0.089 SA
ENDROOT
TORSDOF 0
