REMARK  2 active torsions:
REMARK  status: ('A' for Active; 'I' for Inactive)
REMARK    1  A    between atoms: C1_1  and  C3_3 
REMARK    2  A    between atoms: C2_2  and  C5_5 
ROOT
HETATM    1  C1  UNL     1     -32.741   7.293   2.242  1.00 20.00     0.003 C 
HETATM    2  C2  UNL     1     -34.006   7.092   2.634  1.00 20.00     0.049 C 
ENDROOT
BRANCH   1   3
HETATM    3  C3  UNL     1     -32.364   8.365   1.346  1.00 20.00    -0.004 C 
HETATM    4  C4  UNL     1     -33.099   8.727   0.284  1.00 20.00    -0.031 C 
HETATM    5  C6  UNL     1     -32.719   9.831  -0.647  1.00 20.00     0.036 C 
ENDBRANCH   1   3
BRANCH   2   6
HETATM    6  C5  UNL     1     -34.420   5.997   3.555  1.00 20.00     0.145 C 
HETATM    7  C7  UNL     1     -33.651   4.702   3.574  1.00 20.00     0.096 C 
HETATM    8  O8  UNL     1     -35.393   6.171   4.290  1.00 20.00    -0.294 OA
ENDBRANCH   2   6
TORSDOF 2
