REMARK  1 active torsions:
REMARK  status: ('A' for Active; 'I' for Inactive)
REMARK    1  A    between atoms: C4_4  and  C7_7 
ROOT
HETATM    1  C1  UNL     1     -31.562   6.456   0.999  1.00 20.00     0.135 A 
HETATM    2  C2  UNL     1     -32.424   5.391   1.145  1.00 20.00     0.136 A 
HETATM    3  C3  UNL     1     -32.783   7.652   2.518  1.00 20.00     0.143 A 
HETATM    4  C4  UNL     1     -33.645   6.588   2.664  1.00 20.00     0.055 A 
HETATM    5  N8  UNL     1     -31.726   7.606   1.683  1.00 20.00    -0.270 NA
HETATM    6  N9  UNL     1     -33.481   5.438   1.980  1.00 20.00    -0.262 NA
ENDROOT
BRANCH   4   7
HETATM    7  C7  UNL     1     -34.825   6.676   3.613  1.00 20.00     0.031 C 
HETATM    8  C5  UNL     1     -34.549   7.646   4.766  1.00 20.00     0.016 C 
HETATM    9  C6  UNL     1     -35.226   5.298   4.145  1.00 20.00     0.016 C 
ENDBRANCH   4   7
TORSDOF 1
