REMARK  2 active torsions:
REMARK  status: ('A' for Active; 'I' for Inactive)
REMARK    1  A    between atoms: C1_1  and  C2_2 
REMARK    2  A    between atoms: C1_1  and  C3_3 
ROOT
HETATM    1  C1  UNL     1     -32.677   7.334   1.494  1.00 20.00     0.148 C 
HETATM    2 CL4  UNL     1     -31.877   5.715   1.376  1.00 20.00    -0.119 Cl
ENDROOT
BRANCH   1   3
HETATM    3  C2  UNL     1     -31.768   8.399   0.846  1.00 20.00     0.199 C 
HETATM    4 CL5  UNL     1     -32.713   9.816   0.281  1.00 20.00    -0.106 Cl
HETATM    5 CL6  UNL     1     -30.529   9.006   1.985  1.00 20.00    -0.106 Cl
ENDBRANCH   1   3
BRANCH   1   6
HETATM    6  C3  UNL     1     -33.068   7.631   2.959  1.00 20.00     0.199 C 
HETATM    7 CL7  UNL     1     -34.103   6.367   3.678  1.00 20.00    -0.106 Cl
HETATM    8 CL8  UNL     1     -33.873   9.221   3.121  1.00 20.00    -0.106 Cl
ENDBRANCH   1   6
TORSDOF 2
