REMARK  2 active torsions:
REMARK  status: ('A' for Active; 'I' for Inactive)
REMARK    1  A    between atoms: C1_1  and  C4_4 
REMARK    2  A    between atoms: C5_5  and  C8_8 
ROOT
HETATM    1  C2  UNL     1     -32.044   7.709   2.606  1.00 20.00     0.020 C 
HETATM    2  C3  UNL     1     -33.860   7.865   1.501  1.00 20.00     0.020 C 
HETATM    3  C4  UNL     1     -33.314   6.828   2.513  1.00 20.00     0.087 C 
HETATM    4  C5  UNL     1     -32.387   8.229   1.186  1.00 20.00    -0.010 C 
ENDROOT
BRANCH   3   5
HETATM    5  C1  UNL     1     -34.091   6.688   3.771  1.00 20.00     0.177 C 
HETATM    6  O9  UNL     1     -34.359   7.770   4.363  1.00 20.00    -0.648 OA
HETATM    7  O10 UNL     1     -34.383   5.499   4.084  1.00 20.00    -0.648 OA
ENDBRANCH   3   5
BRANCH   4   8
HETATM    8  C8  UNL     1     -32.093   9.689   0.908  1.00 20.00    -0.019 C 
HETATM    9  C6  UNL     1     -32.446  10.055  -0.536  1.00 20.00     0.010 C 
HETATM   10  C7  UNL     1     -32.850  10.597   1.882  1.00 20.00     0.010 C 
ENDBRANCH   4   8
TORSDOF 2
