REMARK  0 active torsions:
REMARK  status: ('A' for Active; 'I' for Inactive)
ROOT
HETATM    1  C1  UNL     1     -32.449   7.014   1.385  1.00 20.00     0.196 C 
HETATM    2  C2  UNL     1     -32.837   5.682   1.967  1.00 20.00     0.196 C 
HETATM    3  C3  UNL     1     -33.422   7.327   3.397  1.00 20.00     0.337 C 
HETATM    4  O4  UNL     1     -32.432   7.876   2.522  1.00 20.00    -0.365 OA
HETATM    5  O5  UNL     1     -33.813   6.025   2.949  1.00 20.00    -0.365 OA
ENDROOT
TORSDOF 0
