REMARK  5 active torsions:
REMARK  status: ('A' for Active; 'I' for Inactive)
REMARK    1  A    between atoms: C1_1  and  C5_5 
REMARK    2  A    between atoms: C1_1  and  C9_9 
REMARK    3  A    between atoms: C5_5  and  C6_6 
REMARK    4  A    between atoms: C7_7  and  C9_9 
REMARK    5  A    between atoms: C8_8  and  C9_9 
ROOT
HETATM    1  C1  UNL     1     -32.189   7.461   1.589  1.00 20.00     0.131 C 
HETATM    2  O10 UNL     1     -31.251   7.902   2.252  1.00 20.00    -0.298 OA
ENDROOT
BRANCH   1   3
HETATM    3  C5  UNL     1     -32.473   7.924   0.167  1.00 20.00     0.078 C 
BRANCH   3   4
HETATM    4  C6  UNL     1     -32.013   9.352  -0.119  1.00 20.00     0.003 C 
HETATM    5  C2  UNL     1     -32.737  10.381   0.738  1.00 20.00     0.005 C 
ENDBRANCH   3   4
ENDBRANCH   1   3
BRANCH   1   6
HETATM    6  C9  UNL     1     -33.125   6.388   2.148  1.00 20.00     0.054 C 
BRANCH   6   7
HETATM    7  C7  UNL     1     -33.851   6.927   3.391  1.00 20.00     0.007 C 
HETATM    8  C3  UNL     1     -34.820   5.918   3.993  1.00 20.00     0.006 C 
ENDBRANCH   6   7
BRANCH   6   9
HETATM    9  C8  UNL     1     -32.326   5.122   2.498  1.00 20.00     0.007 C 
HETATM   10  C4  UNL     1     -31.594   4.534   1.298  1.00 20.00     0.006 C 
ENDBRANCH   6   9
ENDBRANCH   1   6
TORSDOF 5
