REMARK  3 active torsions:
REMARK  status: ('A' for Active; 'I' for Inactive)
REMARK    1  A    between atoms: C6_6  and  C9_9 
REMARK    2  A    between atoms: C7_7  and  C8_8 
REMARK    3  A    between atoms: C7_7  and  C9_9 
ROOT
HETATM    1  C4  UNL     1     -33.098   7.763   4.417  1.00 20.00     0.015 C 
HETATM    2  C5  UNL     1     -35.490   7.527   3.779  1.00 20.00     0.015 C 
HETATM    3  C9  UNL     1     -34.041   7.327   3.279  1.00 20.00    -0.048 C 
ENDROOT
BRANCH   3   4
HETATM    4  C6  UNL     1     -33.789   5.817   3.005  1.00 20.00     0.004 C 
HETATM    5  C1  UNL     1     -34.036   4.875   4.176  1.00 20.00     0.006 C 
ENDBRANCH   3   4
BRANCH   3   6
HETATM    6  C7  UNL     1     -33.850   8.219   2.016  1.00 20.00     0.012 C 
BRANCH   6   7
HETATM    7  C8  UNL     1     -32.412   8.686   1.693  1.00 20.00    -0.022 C 
HETATM    8  C2  UNL     1     -31.504   7.471   1.467  1.00 20.00     0.009 C 
HETATM    9  C3  UNL     1     -32.363   9.570   0.442  1.00 20.00     0.009 C 
ENDBRANCH   6   7
ENDBRANCH   3   6
TORSDOF 3
