REMARK  1 active torsions:
REMARK  status: ('A' for Active; 'I' for Inactive)
REMARK    1  A    between atoms: C1_1  and  C7_7 
ROOT
HETATM    1  C2  UNL     1     -32.105   8.146   2.637  1.00 20.00     0.000 C 
HETATM    2  C3  UNL     1     -32.391   6.964   1.717  1.00 20.00     0.001 C 
HETATM    3  C4  UNL     1     -33.352   8.573   3.402  1.00 20.00     0.001 C 
HETATM    4  C5  UNL     1     -32.991   5.784   2.483  1.00 20.00     0.018 C 
HETATM    5  C6  UNL     1     -33.962   7.410   4.185  1.00 20.00     0.018 C 
HETATM    6  C7  UNL     1     -34.216   6.176   3.313  1.00 20.00     0.032 C 
HETATM    7  C8  UNL     1     -35.400   6.441   2.385  1.00 20.00     0.025 C 
ENDROOT
BRANCH   6   8
HETATM    8  C1  UNL     1     -34.708   4.999   4.156  1.00 20.00     0.227 C 
HETATM    9  O9  UNL     1     -35.682   5.099   4.897  1.00 20.00    -0.279 OA
HETATM   10 CL10 UNL     1     -33.738   3.577   3.923  1.00 20.00    -0.043 Cl
ENDBRANCH   6   8
TORSDOF 1
