REMARK  0 active torsions:
REMARK  status: ('A' for Active; 'I' for Inactive)
ROOT
HETATM    1  C1  UNL     1     -32.893   7.318   2.624  1.00 20.00    -0.077 C 
HETATM    2  C2  UNL     1     -32.348   8.224   1.801  1.00 20.00    -0.077 C 
HETATM    3  C3  UNL     1     -33.111   5.884   2.217  1.00 20.00     0.034 C 
HETATM    4  C4  UNL     1     -33.356   7.664   4.016  1.00 20.00     0.034 C 
HETATM    5  C5  UNL     1     -32.131   9.658   2.208  1.00 20.00     0.034 C 
HETATM    6  C6  UNL     1     -31.928   7.890   0.394  1.00 20.00     0.034 C 
HETATM    7  C7  UNL     1     -34.568   5.473   2.434  1.00 20.00     0.004 C 
HETATM    8  C8  UNL     1     -34.812   7.245   4.223  1.00 20.00     0.004 C 
HETATM    9  C9  UNL     1     -32.772  10.612   1.199  1.00 20.00     0.004 C 
HETATM   10  C10 UNL     1     -32.571   8.851  -0.607  1.00 20.00     0.004 C 
HETATM   11  C11 UNL     1     -35.039   5.777   3.857  1.00 20.00     0.001 C 
HETATM   12  C12 UNL     1     -32.320  10.313  -0.232  1.00 20.00     0.001 C 
ENDROOT
TORSDOF 0
