REMARK  2 active torsions:
REMARK  status: ('A' for Active; 'I' for Inactive)
REMARK    1  A    between atoms: C5_5  and  C7_7 
REMARK    2  A    between atoms: C6_6  and  O8_8 
ROOT
HETATM    1  C1  UNL     1     -32.584   5.255   1.012  1.00 20.00     0.003 C 
HETATM    2  C2  UNL     1     -33.821   5.610   1.835  1.00 20.00     0.014 C 
HETATM    3  C3  UNL     1     -31.892   6.501   0.471  1.00 20.00     0.032 C 
HETATM    4  C4  UNL     1     -32.796   7.846   2.411  1.00 20.00     0.045 C 
HETATM    5  C5  UNL     1     -33.489   6.595   2.965  1.00 20.00     0.096 C 
HETATM    6  C6  UNL     1     -31.558   7.486   1.589  1.00 20.00     0.118 C 
ENDROOT
BRANCH   5   7
HETATM    7  C7  UNL     1     -34.751   6.975   3.737  1.00 20.00     0.391 C 
HETATM    8  F9  UNL     1     -34.442   7.807   4.743  1.00 20.00    -0.171 F 
HETATM    9  F10 UNL     1     -35.624   7.585   2.920  1.00 20.00    -0.171 F 
HETATM   10  F11 UNL     1     -35.328   5.874   4.245  1.00 20.00    -0.171 F 
ENDBRANCH   5   7
BRANCH   6  11
HETATM   11  O8  UNL     1     -30.996   8.669   1.031  1.00 20.00    -0.396 OA
HETATM   12  H22 UNL     1     -30.193   8.398   0.558  1.00 20.00     0.210 HD
ENDBRANCH   6  11
TORSDOF 2
