REMARK  1 active torsions:
REMARK  status: ('A' for Active; 'I' for Inactive)
REMARK    1  A    between atoms: C1_1  and  C3_3 
ROOT
HETATM    1  C2  UNL     1     -34.271   6.061   1.464  1.00 20.00     0.067 A 
HETATM    2  C3  UNL     1     -33.769   5.784   2.867  1.00 20.00     0.083 A 
HETATM    3  C4  UNL     1     -32.848   6.400   1.814  1.00 20.00     0.132 A 
HETATM    4  C5  UNL     1     -33.596   4.336   3.262  1.00 20.00     0.030 C 
HETATM    5 CL8  UNL     1     -32.427   8.116   1.895  1.00 20.00    -0.100 Cl
HETATM    6 CL9  UNL     1     -31.567   5.436   1.077  1.00 20.00    -0.100 Cl
ENDROOT
BRANCH   2   7
HETATM    7  C1  UNL     1     -34.266   6.669   3.916  1.00 20.00     0.184 C 
HETATM    8  O6  UNL     1     -33.569   7.701   4.127  1.00 20.00    -0.647 OA
HETATM    9  O7  UNL     1     -35.332   6.284   4.474  1.00 20.00    -0.647 OA
ENDBRANCH   2   7
TORSDOF 1
