REMARK  5 active torsions:
REMARK  status: ('A' for Active; 'I' for Inactive)
REMARK    1  A    between atoms: C1_1  and  C9_9 
REMARK    2  A    between atoms: C6_6  and  C7_7 
REMARK    3  A    between atoms: C6_6  and  C8_8 
REMARK    4  A    between atoms: C7_7  and  C9_9 
REMARK    5  A    between atoms: C8_8  and  C10_10 
ROOT
HETATM    1  C7  UNL     1     -32.462   7.077   2.834  1.00 20.00     0.011 C 
ENDROOT
BRANCH   1   2
HETATM    2  C6  UNL     1     -31.880   7.899   1.676  1.00 20.00     0.001 C 
BRANCH   2   3
HETATM    3  C8  UNL     1     -32.888   8.943   1.182  1.00 20.00     0.004 C 
BRANCH   3   4
HETATM    4  C10 UNL     1     -32.371   9.784   0.001  1.00 20.00    -0.023 C 
HETATM    5  C4  UNL     1     -32.027   8.929  -1.219  1.00 20.00     0.009 C 
HETATM    6  C5  UNL     1     -33.416  10.835  -0.384  1.00 20.00     0.009 C 
ENDBRANCH   3   4
ENDBRANCH   2   3
ENDBRANCH   1   2
BRANCH   1   7
HETATM    7  C9  UNL     1     -33.703   6.247   2.468  1.00 20.00     0.051 C 
HETATM    8  C3  UNL     1     -33.477   5.383   1.227  1.00 20.00     0.018 C 
BRANCH   7   9
HETATM    9  C1  UNL     1     -34.192   5.407   3.649  1.00 20.00     0.126 C 
HETATM   10  C2  UNL     1     -33.249   4.359   4.184  1.00 20.00     0.091 C 
HETATM   11  O11 UNL     1     -35.296   5.577   4.167  1.00 20.00    -0.298 OA
ENDBRANCH   7   9
ENDBRANCH   1   7
TORSDOF 5
