REMARK  3 active torsions:
REMARK  status: ('A' for Active; 'I' for Inactive)
REMARK    1  A    between atoms: C7_7  and  C8_8 
REMARK    2  A    between atoms: C7_7  and  C9_9 
REMARK    3  A    between atoms: C9_9  and  S10_10 
ROOT
HETATM    1  C7  UNL     1     -32.958   7.858   2.873  1.00 20.00     0.028 C 
ENDROOT
BRANCH   1   2
HETATM    2  C8  UNL     1     -33.972   7.096   3.787  1.00 20.00    -0.050 C 
HETATM    3  C1  UNL     1     -33.756   7.331   5.287  1.00 20.00     0.014 C 
HETATM    4  C2  UNL     1     -35.384   7.625   3.431  1.00 20.00     0.014 C 
HETATM    5  C3  UNL     1     -33.978   5.582   3.505  1.00 20.00     0.014 C 
ENDBRANCH   1   2
BRANCH   1   6
HETATM    6  C9  UNL     1     -32.592   7.399   1.431  1.00 20.00     0.001 C 
HETATM    7  C4  UNL     1     -33.902   7.251   0.629  1.00 20.00     0.026 C 
HETATM    8  C5  UNL     1     -31.831   6.074   1.357  1.00 20.00     0.026 C 
BRANCH   6   9
HETATM    9  S10 UNL     1     -31.604   8.675   0.544  1.00 20.00    -0.164 SA
HETATM   10  C6  UNL     1     -32.785  10.031   0.690  1.00 20.00     0.090 C 
ENDBRANCH   6   9
ENDBRANCH   1   6
TORSDOF 3
