REMARK  3 active torsions:
REMARK  status: ('A' for Active; 'I' for Inactive)
REMARK    1  A    between atoms: C3_3  and  C4_4 
REMARK    2  A    between atoms: C3_3  and  N5_5 
REMARK    3  A    between atoms: C4_4  and  O6_6 
ROOT
HETATM    1  C1  UNL     1     -31.995   8.573   0.684  1.00 20.00     0.157 C 
HETATM    2  N5  UNL     1     -31.677   7.712   1.417  1.00 20.00    -0.273 NA
HETATM    3  S7  UNL     1     -32.397   9.751  -0.309  1.00 20.00    -0.055 SA
ENDROOT
BRANCH   2   4
HETATM    4  C3  UNL     1     -32.754   6.788   1.786  1.00 20.00     0.176 C 
BRANCH   4   5
HETATM    5  C4  UNL     1     -33.431   7.291   3.047  1.00 20.00     0.189 C 
BRANCH   5   6
HETATM    6  O6  UNL     1     -34.472   6.395   3.413  1.00 20.00    -0.394 OA
HETATM    7  C2  UNL     1     -33.959   5.232   4.049  1.00 20.00     0.201 C 
ENDBRANCH   5   6
ENDBRANCH   4   5
ENDBRANCH   2   4
TORSDOF 3
