REMARK  0 active torsions:
REMARK  status: ('A' for Active; 'I' for Inactive)
ROOT
HETATM    1  C1  UNL     1     -33.773   6.974   3.270  1.00 20.00     0.132 C 
HETATM    2  C2  UNL     1     -31.484   7.001   1.795  1.00 20.00     0.064 C 
HETATM    3  C3  UNL     1     -32.101   8.338   2.183  1.00 20.00     0.128 C 
HETATM    4  C4  UNL     1     -32.512   5.887   1.568  1.00 20.00     0.051 C 
HETATM    5  C5  UNL     1     -34.828   7.024   4.329  1.00 20.00     0.099 C 
HETATM    6  C6  UNL     1     -32.654   9.163   1.031  1.00 20.00     0.040 C 
HETATM    7  C7  UNL     1     -31.801   4.526   1.672  1.00 20.00     0.040 C 
HETATM    8  C8  UNL     1     -33.194   5.962   0.197  1.00 20.00     0.040 C 
HETATM    9  N9  UNL     1     -33.552   5.903   2.598  1.00 20.00    -0.261 NA
HETATM   10  O10 UNL     1     -33.131   8.165   3.172  1.00 20.00    -0.333 OA
ENDROOT
TORSDOF 0
