REMARK  0 active torsions:
REMARK  status: ('A' for Active; 'I' for Inactive)
ROOT
HETATM    1  C1  UNL     1     -33.957   7.490   3.512  1.00 20.00     0.127 C 
HETATM    2  C2  UNL     1     -32.978   7.937   4.570  1.00 20.00     0.078 C 
HETATM    3  C3  UNL     1     -33.364   7.044   2.193  1.00 20.00     0.087 C 
HETATM    4  C4  UNL     1     -32.019   8.972   4.004  1.00 20.00     0.008 C 
HETATM    5  C5  UNL     1     -31.663   9.670  -0.853  1.00 20.00     0.000 C 
HETATM    6  C6  UNL     1     -32.392  10.331   0.311  1.00 20.00     0.001 C 
HETATM    7  C7  UNL     1     -30.831   8.475  -0.401  1.00 20.00     0.001 C 
HETATM    8  C8  UNL     1     -31.373   8.503   2.698  1.00 20.00     0.010 C 
HETATM    9  C9  UNL     1     -33.225   9.321   1.101  1.00 20.00     0.010 C 
HETATM   10  C10 UNL     1     -31.667   7.472   0.395  1.00 20.00     0.010 C 
HETATM   11  C11 UNL     1     -32.404   8.104   1.606  1.00 20.00    -0.034 C 
HETATM   12  O12 UNL     1     -35.162   7.402   3.741  1.00 20.00    -0.298 OA
ENDROOT
TORSDOF 0
