REMARK  4 active torsions:
REMARK  status: ('A' for Active; 'I' for Inactive)
REMARK    1  A    between atoms: C3_3  and  C4_4 
REMARK    2  A    between atoms: C4_4  and  C5_5 
REMARK    3  A    between atoms: C5_5  and  C6_6 
REMARK    4  A    between atoms: C6_6  and  C7_7 
ROOT
HETATM    1  C1  UNL     1     -34.191   4.144   4.487  1.00 20.00    -0.176 C 
HETATM    2  C2  UNL     1     -33.220   3.328   4.762  1.00 20.00     0.091 C 
HETATM    3  C3  UNL     1     -35.165   4.962   4.212  1.00 20.00     0.066 C 
ENDROOT
BRANCH   3   4
HETATM    4  C4  UNL     1     -35.004   6.431   3.958  1.00 20.00     0.017 C 
BRANCH   4   5
HETATM    5  C5  UNL     1     -33.619   6.750   3.393  1.00 20.00     0.002 C 
BRANCH   5   6
HETATM    6  C6  UNL     1     -33.366   5.997   2.085  1.00 20.00     0.015 C 
BRANCH   6   7
HETATM    7  C7  UNL     1     -31.973   6.291   1.544  1.00 20.00     0.114 C 
HETATM    8 CL8  UNL     1     -31.778   8.033   1.242  1.00 20.00    -0.130 Cl
ENDBRANCH   6   7
ENDBRANCH   5   6
ENDBRANCH   4   5
ENDBRANCH   3   4
TORSDOF 4
