REMARK  2 active torsions:
REMARK  status: ('A' for Active; 'I' for Inactive)
REMARK    1  A    between atoms: C1_1  and  C5_5 
REMARK    2  A    between atoms: C5_5  and  C6_6 
ROOT
HETATM    1  C5  UNL     1     -32.596   6.516   3.379  1.00 20.00     0.104 C 
ENDROOT
BRANCH   1   2
HETATM    2  C1  UNL     1     -33.951   6.808   4.003  1.00 20.00     0.219 C 
HETATM    3  O7  UNL     1     -34.279   7.947   4.324  1.00 20.00    -0.280 OA
HETATM    4 CL8  UNL     1     -34.935   5.384   4.189  1.00 20.00    -0.044 Cl
ENDBRANCH   1   2
BRANCH   1   5
HETATM    5  C6  UNL     1     -32.545   6.650   1.839  1.00 20.00    -0.044 C 
HETATM    6  C2  UNL     1     -32.133   5.325   1.177  1.00 20.00     0.015 C 
HETATM    7  C3  UNL     1     -33.956   7.025   1.345  1.00 20.00     0.015 C 
HETATM    8  C4  UNL     1     -31.571   7.759   1.405  1.00 20.00     0.015 C 
ENDBRANCH   1   5
TORSDOF 2
