REMARK  2 active torsions:
REMARK  status: ('A' for Active; 'I' for Inactive)
REMARK    1  A    between atoms: C3_3  and  C4_4 
REMARK    2  A    between atoms: C4_4  and  C5_5 
ROOT
HETATM    1  C1  UNL     1     -34.892   5.696   4.152  1.00 20.00     0.012 C 
HETATM    2  C2  UNL     1     -34.197   6.519   3.623  1.00 20.00    -0.117 C 
HETATM    3  C3  UNL     1     -33.349   7.532   2.979  1.00 20.00     0.094 C 
ENDROOT
BRANCH   3   4
HETATM    4  C4  UNL     1     -32.454   6.934   1.890  1.00 20.00     0.027 C 
BRANCH   4   5
HETATM    5  C5  UNL     1     -31.511   7.925   1.208  1.00 20.00     0.115 C 
HETATM    6 CL6  UNL     1     -32.391   9.262   0.432  1.00 20.00    -0.130 Cl
ENDBRANCH   4   5
ENDBRANCH   3   4
TORSDOF 2
