REMARK  0 active torsions:
REMARK  status: ('A' for Active; 'I' for Inactive)
ROOT
HETATM    1  C1  UNL     1     -33.699   5.641   1.863  1.00 20.00     0.288 C 
HETATM    2  C2  UNL     1     -33.877   7.114   2.294  1.00 20.00     0.288 C 
HETATM    3  C3  UNL     1     -33.695   5.271   3.365  1.00 20.00     0.343 C 
HETATM    4  C4  UNL     1     -34.466   6.589   3.624  1.00 20.00     0.343 C 
HETATM    5  F5  UNL     1     -32.566   5.357   1.184  1.00 20.00    -0.240 F 
HETATM    6  F6  UNL     1     -32.729   7.824   2.412  1.00 20.00    -0.240 F 
HETATM    7  F7  UNL     1     -32.472   5.197   3.938  1.00 20.00    -0.196 F 
HETATM    8  F8  UNL     1     -34.350   4.135   3.692  1.00 20.00    -0.196 F 
HETATM    9  F9  UNL     1     -34.106   7.269   4.734  1.00 20.00    -0.196 F 
HETATM   10  F10 UNL     1     -35.814   6.473   3.654  1.00 20.00    -0.196 F 
ENDROOT
TORSDOF 0
