REMARK  1 active torsions:
REMARK  status: ('A' for Active; 'I' for Inactive)
REMARK    1  A    between atoms: C2_2  and  C3_3 
ROOT
HETATM    1  C3  UNL     1     -32.653   6.938   1.818  1.00 20.00     0.101 C 
HETATM    2  C4  UNL     1     -33.430   7.035   2.907  1.00 20.00     0.288 C 
HETATM    3  F5  UNL     1     -33.960   5.929   3.475  1.00 20.00    -0.171 F 
HETATM    4  F6  UNL     1     -33.698   8.241   3.455  1.00 20.00    -0.171 F 
HETATM    5 CL7  UNL     1     -32.344   5.360   1.160  1.00 20.00    -0.079 Cl
ENDROOT
BRANCH   1   6
HETATM    6  C2  UNL     1     -32.068   8.105   1.183  1.00 20.00     0.019 C 
HETATM    7  C1  UNL     1     -32.647   9.297   0.986  1.00 20.00     0.013 C 
ENDBRANCH   1   6
TORSDOF 1
