REMARK  1 active torsions:
REMARK  status: ('A' for Active; 'I' for Inactive)
REMARK    1  A    between atoms: C3_3  and  C5_5 
ROOT
HETATM    1  C1  UNL     1     -33.710   7.814   3.545  1.00 20.00     0.065 A 
HETATM    2  C2  UNL     1     -34.413   5.496   3.120  1.00 20.00     0.069 A 
HETATM    3  C3  UNL     1     -33.041   7.258   2.477  1.00 20.00     0.026 A 
HETATM    4  C4  UNL     1     -33.448   5.915   2.231  1.00 20.00     0.031 A 
HETATM    5  S7  UNL     1     -34.825   6.719   4.245  1.00 20.00    -0.111 SA
HETATM    6 BR8  UNL     1     -32.739   4.846   0.848  1.00 20.00    -0.050 Br
ENDROOT
BRANCH   3   7
HETATM    7  C5  UNL     1     -32.054   8.004   1.737  1.00 20.00     0.271 C 
HETATM    8  O6  UNL     1     -32.301   9.063   1.138  1.00 20.00    -0.301 OA
ENDBRANCH   3   7
TORSDOF 1
