REMARK  0 active torsions:
REMARK  status: ('A' for Active; 'I' for Inactive)
ROOT
HETATM    1  C1  UNL     1     -32.380  10.138  -0.284  1.00 20.00     0.014 C 
HETATM    2  C2  UNL     1     -32.386   9.210   0.477  1.00 20.00    -0.091 C 
HETATM    3  C3  UNL     1     -33.097   5.692   2.841  1.00 20.00     0.000 C 
HETATM    4  C4  UNL     1     -32.305   5.510   1.547  1.00 20.00     0.003 C 
HETATM    5  C5  UNL     1     -34.193   6.737   2.700  1.00 20.00     0.003 C 
HETATM    6  C6  UNL     1     -32.304   6.747   0.641  1.00 20.00     0.039 C 
HETATM    7  C7  UNL     1     -33.651   8.116   2.303  1.00 20.00     0.039 C 
HETATM    8  C8  UNL     1     -32.393   8.071   1.411  1.00 20.00     0.099 C 
HETATM    9 CL9  UNL     1     -30.915   8.274   2.424  1.00 20.00    -0.105 Cl
ENDROOT
TORSDOF 0
