REMARK  3 active torsions:
REMARK  status: ('A' for Active; 'I' for Inactive)
REMARK    1  A    between atoms: C2_2  and  C3_3 
REMARK    2  A    between atoms: C2_2  and  C4_4 
REMARK    3  A    between atoms: C3_3  and  O5_5 
ROOT
HETATM    1  C2  UNL     1     -32.488   7.363   2.123  1.00 20.00     0.379 C 
HETATM    2  F6  UNL     1     -32.856   6.580   1.070  1.00 20.00    -0.231 F 
ENDROOT
BRANCH   1   3
HETATM    3  C3  UNL     1     -32.369   8.790   1.623  1.00 20.00     0.393 C 
HETATM    4  F7  UNL     1     -31.085   9.206   1.760  1.00 20.00    -0.172 F 
HETATM    5  F8  UNL     1     -33.150   9.613   2.363  1.00 20.00    -0.172 F 
BRANCH   3   6
HETATM    6  O5  UNL     1     -32.741   8.889   0.254  1.00 20.00    -0.329 OA
HETATM    7  C1  UNL     1     -32.639  10.216  -0.245  1.00 20.00     0.208 C 
ENDBRANCH   3   6
ENDBRANCH   1   3
BRANCH   1   8
HETATM    8  C4  UNL     1     -33.516   7.180   3.217  1.00 20.00     0.426 C 
HETATM    9  F9  UNL     1     -33.162   7.877   4.319  1.00 20.00    -0.168 F 
HETATM   10  F10 UNL     1     -33.632   5.884   3.578  1.00 20.00    -0.168 F 
HETATM   11  F11 UNL     1     -34.734   7.613   2.829  1.00 20.00    -0.168 F 
ENDBRANCH   1   8
TORSDOF 3
