REMARK  0 active torsions:
REMARK  status: ('A' for Active; 'I' for Inactive)
ROOT
HETATM    1  C1  UNL     1     -33.728   5.783   2.290  1.00 20.00     0.134 C 
HETATM    2  C2  UNL     1     -33.726   7.753   3.674  1.00 20.00     0.134 C 
HETATM    3  C3  UNL     1     -32.370   6.205   1.737  1.00 20.00     0.183 C 
HETATM    4  C4  UNL     1     -32.368   8.129   3.088  1.00 20.00     0.183 C 
HETATM    5  N5  UNL     1     -33.898   6.296   3.654  1.00 20.00    -0.224 NA
HETATM    6  O6  UNL     1     -32.246   7.628   1.756  1.00 20.00    -0.389 OA
HETATM    7 CL7  UNL     1     -35.442   5.804   4.359  1.00 20.00    -0.022 Cl
ENDROOT
TORSDOF 0
