REMARK  2 active torsions:
REMARK  status: ('A' for Active; 'I' for Inactive)
REMARK    1  A    between atoms: C1_1  and  C2_2 
REMARK    2  A    between atoms: C1_1  and  C3_3 
ROOT
HETATM    1  C1  UNL     1     -33.075   6.381   2.145  1.00 20.00     0.245 C 
HETATM    2  O4  UNL     1     -33.183   5.445   1.354  1.00 20.00    -0.287 OA
ENDROOT
BRANCH   1   3
HETATM    3  C2  UNL     1     -31.972   7.411   2.076  1.00 20.00     0.202 C 
HETATM    4 CL8  UNL     1     -32.463   8.787   1.075  1.00 20.00    -0.122 Cl
ENDBRANCH   1   3
BRANCH   1   5
HETATM    5  C3  UNL     1     -34.066   6.557   3.261  1.00 20.00     0.452 C 
HETATM    6  F5  UNL     1     -33.779   7.642   4.023  1.00 20.00    -0.163 F 
HETATM    7  F6  UNL     1     -34.086   5.484   4.091  1.00 20.00    -0.163 F 
HETATM    8  F7  UNL     1     -35.332   6.723   2.801  1.00 20.00    -0.163 F 
ENDBRANCH   1   5
TORSDOF 2
