REMARK  1 active torsions:
REMARK  status: ('A' for Active; 'I' for Inactive)
REMARK    1  A    between atoms: C2_2  and  C7_7 
ROOT
HETATM    1  C1  UNL     1     -34.457   6.108   3.377  1.00 20.00    -0.110 C 
HETATM    2  C2  UNL     1     -33.591   6.265   2.558  1.00 20.00    -0.098 C 
HETATM    3  C3  UNL     1     -35.509   5.918   4.373  1.00 20.00     0.112 C 
ENDROOT
BRANCH   2   4
HETATM    4  C7  UNL     1     -32.526   6.459   1.550  1.00 20.00     0.013 C 
HETATM    5  C4  UNL     1     -32.018   7.907   1.617  1.00 20.00     0.028 C 
HETATM    6  C5  UNL     1     -33.090   6.177   0.151  1.00 20.00     0.028 C 
HETATM    7  C6  UNL     1     -31.367   5.495   1.840  1.00 20.00     0.028 C 
ENDBRANCH   2   4
TORSDOF 1
