REMARK  4 active torsions:
REMARK  status: ('A' for Active; 'I' for Inactive)
REMARK    1  A    between atoms: C1_1  and  C4_4 
REMARK    2  A    between atoms: C2_2  and  C8_8 
REMARK    3  A    between atoms: C8_8  and  C9_9 
REMARK    4  A    between atoms: C8_8  and  O10_10 
ROOT
HETATM    1  C8  UNL     1     -32.622   6.456   2.601  1.00 20.00     0.200 C 
ENDROOT
BRANCH   1   2
HETATM    2  C2  UNL     1     -32.456   7.575   1.663  1.00 20.00    -0.069 C 
HETATM    3  C1  UNL     1     -32.320   8.491   0.898  1.00 20.00    -0.070 C 
BRANCH   3   4
HETATM    4  C4  UNL     1     -32.161   9.580  -0.010  1.00 20.00    -0.018 C 
HETATM    5  C3  UNL     1     -32.985  10.634   0.079  1.00 20.00     0.028 C 
HETATM    6  C5  UNL     1     -31.072   9.512  -1.041  1.00 20.00     0.057 C 
ENDBRANCH   3   4
ENDBRANCH   1   2
BRANCH   1   7
HETATM    7  C9  UNL     1     -33.764   6.673   3.616  1.00 20.00     0.018 C 
HETATM    8  C6  UNL     1     -35.144   6.777   2.956  1.00 20.00     0.013 C 
HETATM    9  C7  UNL     1     -33.511   7.884   4.516  1.00 20.00     0.013 C 
ENDBRANCH   1   7
BRANCH   1  10
HETATM   10  O10 UNL     1     -32.860   5.264   1.854  1.00 20.00    -0.383 OA
HETATM   11  H24 UNL     1     -32.085   5.136   1.286  1.00 20.00     0.211 HD
ENDBRANCH   1  10
TORSDOF 4
