REMARK  3 active torsions:
REMARK  status: ('A' for Active; 'I' for Inactive)
REMARK    1  A    between atoms: C2_2  and  O5_5 
REMARK    2  A    between atoms: C3_3  and  C4_4 
REMARK    3  A    between atoms: C3_3  and  O5_5 
ROOT
HETATM    1  C3  UNL     1     -32.886   6.797   1.578  1.00 20.00     0.454 C 
HETATM    2  F6  UNL     1     -33.219   5.722   0.823  1.00 20.00    -0.166 F 
HETATM    3  F7  UNL     1     -31.560   6.722   1.847  1.00 20.00    -0.166 F 
ENDROOT
BRANCH   1   4
HETATM    4  C4  UNL     1     -33.668   6.780   2.861  1.00 20.00     0.484 C 
HETATM    5  F8  UNL     1     -34.994   6.837   2.616  1.00 20.00    -0.163 F 
HETATM    6  F9  UNL     1     -33.426   5.653   3.564  1.00 20.00    -0.163 F 
HETATM    7  F10 UNL     1     -33.346   7.833   3.642  1.00 20.00    -0.163 F 
ENDBRANCH   1   4
BRANCH   1   8
HETATM    8  O5  UNL     1     -33.153   7.987   0.849  1.00 20.00    -0.319 OA
BRANCH   8   9
HETATM    9  C2  UNL     1     -32.420   9.101   1.337  1.00 20.00     0.170 C 
HETATM   10  C1  UNL     1     -32.763  10.320   0.507  1.00 20.00     0.033 C 
ENDBRANCH   8   9
ENDBRANCH   1   8
TORSDOF 3
