REMARK  5 active torsions:
REMARK  status: ('A' for Active; 'I' for Inactive)
REMARK    1  A    between atoms: C1_1  and  C2_2 
REMARK    2  A    between atoms: C1_1  and  C3_3 
REMARK    3  A    between atoms: C2_2  and  P11_11 
REMARK    4  A    between atoms: C8_8  and  P11_11 
REMARK    5  A    between atoms: C9_9  and  P11_11 
ROOT
HETATM    1  O10 UNL     1     -34.126   6.619   0.745  1.00 20.00    -0.317 OA
HETATM    2  P11 UNL     1     -33.011   6.551   1.755  1.00 20.00     0.105 P 
ENDROOT
BRANCH   2   3
HETATM    3  C2  UNL     1     -31.983   7.900   2.129  1.00 20.00     0.096 C 
BRANCH   3   4
HETATM    4  C1  UNL     1     -32.103   8.983   1.422  1.00 20.00    -0.141 C 
BRANCH   4   5
HETATM    5  C3  UNL     1     -32.219  10.074   0.715  1.00 20.00     0.026 C 
HETATM    6  C4  UNL     1     -33.208  10.202  -0.408  1.00 20.00     0.030 C 
HETATM    7  C5  UNL     1     -31.372  11.288   0.970  1.00 20.00     0.030 C 
ENDBRANCH   4   5
ENDBRANCH   3   4
ENDBRANCH   2   3
BRANCH   2   8
HETATM    8  C8  UNL     1     -31.853   5.246   1.335  1.00 20.00     0.073 C 
HETATM    9  C6  UNL     1     -32.549   3.952   0.969  1.00 20.00     0.013 C 
ENDBRANCH   2   8
BRANCH   2  10
HETATM   10  C9  UNL     1     -33.636   6.043   3.359  1.00 20.00     0.073 C 
HETATM   11  C7  UNL     1     -34.411   7.143   4.052  1.00 20.00     0.013 C 
ENDBRANCH   2  10
TORSDOF 5
