REMARK  2 active torsions:
REMARK  status: ('A' for Active; 'I' for Inactive)
REMARK    1  A    between atoms: C3_3  and  C7_7 
REMARK    2  A    between atoms: C7_7  and  C8_8 
ROOT
HETATM    1  C1  UNL     1     -32.533   5.958   2.164  1.00 20.00     0.263 C 
HETATM    2  C2  UNL     1     -33.958   7.682   2.860  1.00 20.00     0.046 C 
HETATM    3  C3  UNL     1     -32.600   7.464   2.220  1.00 20.00     0.088 C 
HETATM    4  C4  UNL     1     -34.062   6.489   3.785  1.00 20.00     0.128 C 
HETATM    5  C5  UNL     1     -35.493   6.099   4.102  1.00 20.00     0.040 C 
HETATM    6  O9  UNL     1     -31.795   5.296   1.451  1.00 20.00    -0.265 OA
HETATM    7  O10 UNL     1     -33.416   5.427   3.068  1.00 20.00    -0.316 OA
ENDROOT
BRANCH   3   8
HETATM    8  C7  UNL     1     -32.484   8.110   0.853  1.00 20.00     0.014 C 
BRANCH   8   9
HETATM    9  C8  UNL     1     -32.593   9.632   0.938  1.00 20.00    -0.004 C 
HETATM   10  C6  UNL     1     -32.449  10.282  -0.428  1.00 20.00     0.005 C 
ENDBRANCH   8   9
ENDBRANCH   3   8
TORSDOF 2
