REMARK  2 active torsions:
REMARK  status: ('A' for Active; 'I' for Inactive)
REMARK    1  A    between atoms: C1_1  and  C5_5 
REMARK    2  A    between atoms: C4_4  and  C5_5 
ROOT
HETATM    1  C1  UNL     1     -34.079   6.905   3.585  1.00 20.00     0.164 C 
HETATM    2  C2  UNL     1     -33.183   6.914   2.594  1.00 20.00     0.301 C 
HETATM    3  F7  UNL     1     -33.930   7.812   4.579  1.00 20.00    -0.205 F 
HETATM    4  F8  UNL     1     -32.178   7.815   2.610  1.00 20.00    -0.170 F 
HETATM    5  F9  UNL     1     -33.273   6.033   1.575  1.00 20.00    -0.170 F 
ENDROOT
BRANCH   1   6
HETATM    6  C5  UNL     1     -35.232   5.949   3.678  1.00 20.00     0.110 C 
BRANCH   6   7
HETATM    7  C4  UNL     1     -34.906   4.653   4.357  1.00 20.00     0.151 A 
HETATM    8  C3  UNL     1     -33.578   4.439   5.028  1.00 20.00     0.200 A 
HETATM    9  O6  UNL     1     -33.865   3.898   3.728  1.00 20.00    -0.381 OA
ENDBRANCH   6   7
ENDBRANCH   1   6
TORSDOF 2
