REMARK  0 active torsions:
REMARK  status: ('A' for Active; 'I' for Inactive)
REMARK       I    between atoms: C2_2  and  N4_4 
ROOT
HETATM    1  C1  UNL     1     -32.919   6.990   2.235  1.00 20.00     0.166 C 
HETATM    2  C2  UNL     1     -34.467   6.879   3.780  1.00 20.00     0.240 C 
HETATM    3  C3  UNL     1     -35.559   5.996   4.291  1.00 20.00     0.119 C 
HETATM    4  N4  UNL     1     -33.793   6.356   2.697  1.00 20.00    -0.200 NA
HETATM    5  O5  UNL     1     -34.264   7.952   4.339  1.00 20.00    -0.272 OA
HETATM    6  S6  UNL     1     -31.728   7.823   1.583  1.00 20.00    -0.055 SA
ENDROOT
TORSDOF 0
