REMARK  4 active torsions:
REMARK  status: ('A' for Active; 'I' for Inactive)
REMARK    1  A    between atoms: C1_1  and  C5_5 
REMARK    2  A    between atoms: C1_1  and  C8_8 
REMARK    3  A    between atoms: C6_6  and  C8_8 
REMARK    4  A    between atoms: C7_7  and  C8_8 
ROOT
HETATM    1  C8  UNL     1     -33.446   7.451   2.406  1.00 20.00     0.054 C 
ENDROOT
BRANCH   1   2
HETATM    2  C1  UNL     1     -32.236   8.284   1.973  1.00 20.00     0.130 C 
HETATM    3  O9  UNL     1     -31.237   8.395   2.685  1.00 20.00    -0.298 OA
BRANCH   2   4
HETATM    4  C5  UNL     1     -32.328   8.944   0.606  1.00 20.00     0.074 C 
HETATM    5  C2  UNL     1     -32.915  10.343   0.672  1.00 20.00     0.013 C 
ENDBRANCH   2   4
ENDBRANCH   1   2
BRANCH   1   6
HETATM    6  C6  UNL     1     -33.663   7.499   3.927  1.00 20.00     0.007 C 
HETATM    7  C3  UNL     1     -34.907   6.732   4.362  1.00 20.00     0.006 C 
ENDBRANCH   1   6
BRANCH   1   8
HETATM    8  C7  UNL     1     -33.318   6.013   1.872  1.00 20.00     0.007 C 
HETATM    9  C4  UNL     1     -32.138   5.224   2.426  1.00 20.00     0.006 C 
ENDBRANCH   1   8
TORSDOF 4
