REMARK  6 active torsions:
REMARK  status: ('A' for Active; 'I' for Inactive)
REMARK    1  A    between atoms: C2_2  and  C3_3 
REMARK    2  A    between atoms: C3_3  and  C4_4 
REMARK    3  A    between atoms: C4_4  and  C5_5 
REMARK    4  A    between atoms: C5_5  and  C6_6 
REMARK    5  A    between atoms: C6_6  and  C7_7 
REMARK    6  A    between atoms: C7_7  and  C8_8 
ROOT
HETATM    1  C4  UNL     1     -32.885   7.718   2.768  1.00 20.00     0.005 C 
ENDROOT
BRANCH   1   2
HETATM    2  C3  UNL     1     -31.914   8.205   1.684  1.00 20.00     0.050 C 
BRANCH   2   3
HETATM    3  C2  UNL     1     -32.526   9.130   0.669  1.00 20.00     0.002 C 
HETATM    4  C1  UNL     1     -33.054  10.324   0.964  1.00 20.00     0.032 C 
HETATM    5 CL9  UNL     1     -32.576   8.545  -0.960  1.00 20.00    -0.090 Cl
ENDBRANCH   2   3
ENDBRANCH   1   2
BRANCH   1   6
HETATM    6  C5  UNL     1     -34.038   6.877   2.211  1.00 20.00     0.000 C 
BRANCH   6   7
HETATM    7  C6  UNL     1     -34.962   6.394   3.332  1.00 20.00     0.001 C 
BRANCH   7   8
HETATM    8  C7  UNL     1     -34.214   5.504   4.326  1.00 20.00     0.015 C 
BRANCH   8   9
HETATM    9  C8  UNL     1     -33.671   4.256   3.643  1.00 20.00     0.114 C 
HETATM   10 CL10 UNL     1     -32.791   3.243   4.810  1.00 20.00    -0.130 Cl
ENDBRANCH   8   9
ENDBRANCH   7   8
ENDBRANCH   6   7
ENDBRANCH   1   6
TORSDOF 6
