REMARK  2 active torsions:
REMARK  status: ('A' for Active; 'I' for Inactive)
REMARK    1  A    between atoms: C3_3  and  O6_6 
REMARK    2  A    between atoms: C4_4  and  O6_6 
ROOT
HETATM    1  C1  UNL     1     -32.765  10.673   0.704  1.00 20.00     0.014 C 
HETATM    2  C2  UNL     1     -32.609   9.513   0.972  1.00 20.00    -0.091 C 
HETATM    3  C4  UNL     1     -32.417   8.099   1.295  1.00 20.00     0.272 C 
ENDROOT
BRANCH   3   4
HETATM    4  O6  UNL     1     -32.467   7.899   2.702  1.00 20.00    -0.297 OA
BRANCH   4   5
HETATM    5  C3  UNL     1     -33.447   7.054   3.167  1.00 20.00     0.358 C 
HETATM    6  O5  UNL     1     -33.527   5.876   2.829  1.00 20.00    -0.245 OA
HETATM    7 CL7  UNL     1     -34.546   7.837   4.272  1.00 20.00    -0.012 Cl
ENDBRANCH   4   5
ENDBRANCH   3   4
TORSDOF 2
