REMARK  3 active torsions:
REMARK  status: ('A' for Active; 'I' for Inactive)
REMARK    1  A    between atoms: C3_3  and  C4_4 
REMARK    2  A    between atoms: C4_4  and  O10_10 
REMARK    3  A    between atoms: C7_7  and  O10_10 
ROOT
HETATM    1  C1  UNL     1     -33.884   6.906   3.157  1.00 20.00     0.105 C 
HETATM    2  C2  UNL     1     -32.647   5.685   1.507  1.00 20.00     0.042 C 
HETATM    3  C3  UNL     1     -32.865   6.833   2.163  1.00 20.00     0.110 C 
HETATM    4  N8  UNL     1     -34.714   6.967   3.966  1.00 20.00    -0.191 NA
ENDROOT
BRANCH   3   5
HETATM    5  C4  UNL     1     -32.015   8.005   1.814  1.00 20.00     0.303 C 
HETATM    6  O9  UNL     1     -31.287   8.592   2.601  1.00 20.00    -0.258 OA
BRANCH   5   7
HETATM    7  O10 UNL     1     -32.178   8.309   0.496  1.00 20.00    -0.312 OA
BRANCH   7   8
HETATM    8  C7  UNL     1     -32.012   9.690   0.154  1.00 20.00     0.124 C 
HETATM    9  C5  UNL     1     -32.192   9.858  -1.347  1.00 20.00     0.040 C 
HETATM   10  C6  UNL     1     -33.010  10.525   0.942  1.00 20.00     0.040 C 
ENDBRANCH   7   8
ENDBRANCH   5   7
ENDBRANCH   3   5
TORSDOF 3
