REMARK  1 active torsions:
REMARK  status: ('A' for Active; 'I' for Inactive)
REMARK    1  A    between atoms: C3_3  and  C4_4 
ROOT
HETATM    1  C1  UNL     1     -35.059   5.784   3.989  1.00 20.00     0.197 C 
HETATM    2  C2  UNL     1     -34.657   7.095   4.609  1.00 20.00     0.197 C 
HETATM    3  C3  UNL     1     -32.959   6.330   3.335  1.00 20.00     0.369 C 
HETATM    4  O5  UNL     1     -33.815   5.208   3.593  1.00 20.00    -0.351 OA
HETATM    5  O6  UNL     1     -33.597   7.540   3.765  1.00 20.00    -0.351 OA
ENDROOT
BRANCH   3   6
HETATM    6  C4  UNL     1     -32.657   6.419   1.852  1.00 20.00     0.437 C 
HETATM    7  F7  UNL     1     -32.052   5.296   1.426  1.00 20.00    -0.166 F 
HETATM    8  F8  UNL     1     -33.793   6.584   1.149  1.00 20.00    -0.166 F 
HETATM    9  F9  UNL     1     -31.845   7.462   1.599  1.00 20.00    -0.166 F 
ENDBRANCH   3   6
TORSDOF 1
