REMARK  4 active torsions:
REMARK  status: ('A' for Active; 'I' for Inactive)
REMARK    1  A    between atoms: C1_1  and  C4_4 
REMARK    2  A    between atoms: C2_2  and  C6_6 
REMARK    3  A    between atoms: C6_6  and  C7_7 
REMARK    4  A    between atoms: C7_7  and  O8_8 
ROOT
HETATM    1  C1  UNL     1     -32.864   7.441   2.207  1.00 20.00    -0.072 C 
HETATM    2  C2  UNL     1     -32.371   8.259   1.478  1.00 20.00    -0.099 C 
ENDROOT
BRANCH   2   3
HETATM    3  C6  UNL     1     -31.767   9.261   0.587  1.00 20.00     0.120 C 
BRANCH   3   4
HETATM    4  C7  UNL     1     -32.626  10.515   0.495  1.00 20.00     0.176 C 
BRANCH   4   5
HETATM    5  O8  UNL     1     -32.755  11.101   1.785  1.00 20.00    -0.400 OA
HETATM    6  H18 UNL     1     -33.307  11.892   1.678  1.00 20.00     0.209 HD
ENDBRANCH   4   5
ENDBRANCH   3   4
ENDBRANCH   2   3
BRANCH   1   7
HETATM    7  C4  UNL     1     -33.447   6.467   3.071  1.00 20.00    -0.018 C 
HETATM    8  C3  UNL     1     -34.265   6.868   4.056  1.00 20.00     0.028 C 
HETATM    9  C5  UNL     1     -33.128   5.017   2.850  1.00 20.00     0.057 C 
ENDBRANCH   1   7
TORSDOF 4
