REMARK  0 active torsions:
REMARK  status: ('A' for Active; 'I' for Inactive)
ROOT
HETATM    1  C1  UNL     1     -31.557   7.236   1.355  1.00 20.00    -0.025 C 
HETATM    2  C2  UNL     1     -31.619   5.898   1.280  1.00 20.00    -0.025 C 
HETATM    3  C3  UNL     1     -34.229   7.680   4.075  1.00 20.00    -0.024 A 
HETATM    4  C4  UNL     1     -34.970   6.619   4.408  1.00 20.00    -0.025 A 
HETATM    5  C5  UNL     1     -33.786   6.673   1.195  1.00 20.00     0.018 C 
HETATM    6  C6  UNL     1     -32.893   7.716   1.880  1.00 20.00     0.016 C 
HETATM    7  C7  UNL     1     -32.995   5.485   1.755  1.00 20.00     0.014 C 
HETATM    8  C8  UNL     1     -32.970   7.300   3.370  1.00 20.00     0.021 A 
HETATM    9  C9  UNL     1     -34.366   5.319   3.969  1.00 20.00     0.009 A 
HETATM   10  C10 UNL     1     -33.041   5.733   3.290  1.00 20.00     0.009 A 
HETATM   11  C11 UNL     1     -34.128   4.393   5.156  1.00 20.00     0.014 C 
ENDROOT
TORSDOF 0
