REMARK  2 active torsions:
REMARK  status: ('A' for Active; 'I' for Inactive)
REMARK    1  A    between atoms: C7_7  and  O9_9 
REMARK    2  A    between atoms: C8_8  and  O9_9 
ROOT
HETATM    1  C1  UNL     1     -34.808   6.586   4.079  1.00 20.00     0.015 C 
HETATM    2  C2  UNL     1     -33.988   6.727   3.213  1.00 20.00    -0.086 C 
HETATM    3  C3  UNL     1     -32.806   5.624   1.350  1.00 20.00     0.053 C 
HETATM    4  C7  UNL     1     -32.982   6.902   2.158  1.00 20.00     0.196 C 
ENDROOT
BRANCH   4   5
HETATM    5  O9  UNL     1     -33.393   7.948   1.293  1.00 20.00    -0.364 OA
BRANCH   5   6
HETATM    6  C8  UNL     1     -32.446   9.016   1.285  1.00 20.00     0.051 C 
HETATM    7  C4  UNL     1     -31.101   8.470   0.804  1.00 20.00     0.045 C 
HETATM    8  C5  UNL     1     -32.965  10.085   0.326  1.00 20.00     0.045 C 
HETATM    9  C6  UNL     1     -32.332   9.575   2.702  1.00 20.00     0.045 C 
ENDBRANCH   5   6
ENDBRANCH   4   5
TORSDOF 2
