REMARK  6 active torsions:
REMARK  status: ('A' for Active; 'I' for Inactive)
REMARK    1  A    between atoms: C1_1  and  C4_4 
REMARK    2  A    between atoms: C4_4  and  C5_5 
REMARK    3  A    between atoms: C5_5  and  C6_6 
REMARK    4  A    between atoms: C6_6  and  C7_7 
REMARK    5  A    between atoms: C7_7  and  C8_8 
REMARK    6  A    between atoms: C8_8  and  C9_9 
ROOT
HETATM    1  C6  UNL     1     -33.218   7.629   3.365  1.00 20.00     0.000 C 
ENDROOT
BRANCH   1   2
HETATM    2  C5  UNL     1     -34.526   7.005   3.857  1.00 20.00     0.008 C 
BRANCH   2   3
HETATM    3  C4  UNL     1     -34.879   5.750   3.059  1.00 20.00     0.096 C 
BRANCH   3   4
HETATM    4  C1  UNL     1     -33.791   4.693   3.135  1.00 20.00     0.218 C 
HETATM    5  O10 UNL     1     -33.750   3.838   4.014  1.00 20.00    -0.280 OA
HETATM    6 CL11 UNL     1     -32.643   4.863   1.835  1.00 20.00    -0.044 Cl
ENDBRANCH   3   4
ENDBRANCH   2   3
ENDBRANCH   1   2
BRANCH   1   7
HETATM    7  C7  UNL     1     -33.329   8.064   1.902  1.00 20.00     0.000 C 
BRANCH   7   8
HETATM    8  C8  UNL     1     -32.044   8.694   1.352  1.00 20.00     0.004 C 
BRANCH   8   9
HETATM    9  C9  UNL     1     -32.073   9.092  -0.136  1.00 20.00    -0.023 C 
HETATM   10  C2  UNL     1     -33.162  10.120  -0.444  1.00 20.00     0.009 C 
HETATM   11  C3  UNL     1     -30.706   9.648  -0.548  1.00 20.00     0.009 C 
ENDBRANCH   8   9
ENDBRANCH   7   8
ENDBRANCH   1   7
TORSDOF 6
