REMARK  1 active torsions:
REMARK  status: ('A' for Active; 'I' for Inactive)
REMARK    1  A    between atoms: C1_1  and  C3_3 
ROOT
HETATM    1  C2  UNL     1     -33.904   8.760   1.945  1.00 20.00     0.110 C 
HETATM    2  C3  UNL     1     -33.156   7.741   2.852  1.00 20.00     0.110 C 
HETATM    3  C4  UNL     1     -32.987   8.343   0.778  1.00 20.00     0.310 C 
HETATM    4  C5  UNL     1     -31.974   7.823   1.830  1.00 20.00     0.323 C 
HETATM    5  C6  UNL     1     -32.809   8.317   4.224  1.00 20.00     0.031 C 
HETATM    6  F8  UNL     1     -32.545   9.350  -0.007  1.00 20.00    -0.200 F 
HETATM    7  F9  UNL     1     -33.494   7.399  -0.048  1.00 20.00    -0.200 F 
HETATM    8  F10 UNL     1     -31.374   6.650   1.528  1.00 20.00    -0.198 F 
HETATM    9  F11 UNL     1     -30.984   8.694   2.138  1.00 20.00    -0.198 F 
ENDROOT
BRANCH   2  10
HETATM   10  C1  UNL     1     -33.834   6.341   2.979  1.00 20.00     0.233 C 
HETATM   11  O7  UNL     1     -33.260   5.312   2.632  1.00 20.00    -0.279 OA
HETATM   12 CL12 UNL     1     -35.434   6.447   3.647  1.00 20.00    -0.043 Cl
ENDBRANCH   2  10
TORSDOF 1
