REMARK  0 active torsions:
REMARK  status: ('A' for Active; 'I' for Inactive)
ROOT
HETATM    1  C1  UNL     1     -32.557   7.413   2.017  1.00 20.00     0.135 C 
HETATM    2  C2  UNL     1     -33.346   7.655   3.278  1.00 20.00     0.088 C 
HETATM    3  C3  UNL     1     -33.743   5.398   2.473  1.00 20.00     0.025 C 
HETATM    4  C4  UNL     1     -32.754   6.013   1.461  1.00 20.00     0.014 C 
HETATM    5  C5  UNL     1     -34.423   6.563   3.226  1.00 20.00    -0.040 C 
HETATM    6  C6  UNL     1     -33.312   6.066   0.040  1.00 20.00     0.023 C 
HETATM    7  C7  UNL     1     -31.422   5.260   1.473  1.00 20.00     0.023 C 
HETATM    8  C8  UNL     1     -35.678   7.069   2.497  1.00 20.00     0.015 C 
HETATM    9  C9  UNL     1     -34.828   6.126   4.640  1.00 20.00     0.015 C 
HETATM   10  O10 UNL     1     -31.808   8.250   1.525  1.00 20.00    -0.297 OA
ENDROOT
TORSDOF 0
