REMARK  2 active torsions:
REMARK  status: ('A' for Active; 'I' for Inactive)
REMARK    1  A    between atoms: C2_2  and  C3_3 
REMARK    2  A    between atoms: C3_3  and  O9_9 
ROOT
HETATM    1  C1  UNL     1     -33.234   7.860   3.085  1.00 20.00    -0.013 C 
HETATM    2  C2  UNL     1     -33.617   6.605   2.823  1.00 20.00     0.013 C 
HETATM    3  C4  UNL     1     -32.490   8.459   1.938  1.00 20.00     0.028 C 
HETATM    4  C5  UNL     1     -33.190   6.167   1.459  1.00 20.00     0.045 C 
HETATM    5  C6  UNL     1     -32.182   7.246   1.062  1.00 20.00     0.009 C 
ENDROOT
BRANCH   2   6
HETATM    6  C3  UNL     1     -34.362   5.750   3.693  1.00 20.00     0.288 C 
HETATM    7  O8  UNL     1     -35.486   6.007   4.117  1.00 20.00    -0.260 OA
BRANCH   6   8
HETATM    8  O9  UNL     1     -33.629   4.634   3.961  1.00 20.00    -0.323 OA
HETATM    9  C7  UNL     1     -34.244   3.674   4.825  1.00 20.00     0.213 C 
ENDBRANCH   6   8
ENDBRANCH   2   6
TORSDOF 2
