REMARK  2 active torsions:
REMARK  status: ('A' for Active; 'I' for Inactive)
REMARK    1  A    between atoms: C5_5  and  C6_6 
REMARK    2  A    between atoms: C6_6  and  N7_7 
ROOT
HETATM    1  C1  UNL     1     -32.097   8.689   0.803  1.00 20.00     0.158 C 
HETATM    2  N7  UNL     1     -31.782   7.887   1.599  1.00 20.00    -0.270 NA
HETATM    3  S8  UNL     1     -32.494   9.795  -0.272  1.00 20.00    -0.055 SA
ENDROOT
BRANCH   2   4
HETATM    4  C6  UNL     1     -32.763   6.814   1.811  1.00 20.00     0.109 C 
HETATM    5  C4  UNL     1     -32.123   5.495   1.396  1.00 20.00     0.035 C 
BRANCH   4   6
HETATM    6  C5  UNL     1     -33.254   6.822   3.274  1.00 20.00     0.002 C 
HETATM    7  C2  UNL     1     -34.307   5.733   3.506  1.00 20.00     0.011 C 
HETATM    8  C3  UNL     1     -33.800   8.177   3.736  1.00 20.00     0.011 C 
ENDBRANCH   4   6
ENDBRANCH   2   4
TORSDOF 2
