REMARK  1 active torsions:
REMARK  status: ('A' for Active; 'I' for Inactive)
REMARK    1  A    between atoms: C4_4  and  N7_7 
ROOT
HETATM    1  C1  UNL     1     -32.405   9.302   0.694  1.00 20.00     0.163 C 
HETATM    2  N7  UNL     1     -32.117   8.934   1.784  1.00 20.00    -0.231 NA
HETATM    3  S9  UNL     1     -32.786   9.807  -0.769  1.00 20.00    -0.055 SA
ENDROOT
BRANCH   2   4
HETATM    4  C4  UNL     1     -32.650   7.700   2.118  1.00 20.00     0.094 A 
HETATM    5  C2  UNL     1     -32.436   6.470   1.468  1.00 20.00     0.171 A 
HETATM    6  N6  UNL     1     -33.099   5.461   2.041  1.00 20.00    -0.183 NA
HETATM    7  N8  UNL     1     -33.736   6.057   3.063  1.00 20.00    -0.283 N 
HETATM    8  C3  UNL     1     -33.501   7.398   3.153  1.00 20.00     0.145 A 
HETATM    9  C5  UNL     1     -34.575   5.274   3.939  1.00 20.00     0.179 C 
ENDBRANCH   2   4
TORSDOF 1
