REMARK  1 active torsions:
REMARK  status: ('A' for Active; 'I' for Inactive)
REMARK    1  A    between atoms: C1_1  and  C5_5 
ROOT
HETATM    1  C2  UNL     1     -35.137   6.642   3.574  1.00 20.00     0.006 C 
HETATM    2  C3  UNL     1     -34.808   5.143   3.504  1.00 20.00     0.006 C 
HETATM    3  C4  UNL     1     -32.836   6.308   4.053  1.00 20.00     0.011 C 
HETATM    4  C5  UNL     1     -33.376   7.162   1.868  1.00 20.00     0.067 C 
HETATM    5  C6  UNL     1     -33.765   7.306   3.359  1.00 20.00    -0.002 C 
HETATM    6  C7  UNL     1     -33.300   5.133   3.184  1.00 20.00    -0.006 C 
HETATM    7  C8  UNL     1     -32.998   5.653   1.739  1.00 20.00    -0.033 C 
HETATM    8  C10 UNL     1     -31.518   5.394   1.388  1.00 20.00     0.016 C 
HETATM    9  C11 UNL     1     -33.844   4.966   0.654  1.00 20.00     0.016 C 
ENDROOT
BRANCH   4  10
HETATM   10  C1  UNL     1     -32.281   8.124   1.510  1.00 20.00     0.128 C 
HETATM   11  C9  UNL     1     -32.261   8.629   0.093  1.00 20.00     0.091 C 
HETATM   12  O12 UNL     1     -31.443   8.484   2.336  1.00 20.00    -0.298 OA
ENDBRANCH   4  10
TORSDOF 1
