REMARK  1 active torsions:
REMARK  status: ('A' for Active; 'I' for Inactive)
REMARK    1  A    between atoms: C9_9  and  O10_10 
ROOT
HETATM    1  C1  UNL     1     -31.308   7.441   0.973  1.00 20.00     0.001 C 
HETATM    2  C2  UNL     1     -32.292   8.421   1.630  1.00 20.00     0.005 C 
HETATM    3  C3  UNL     1     -31.738   6.030   1.407  1.00 20.00     0.005 C 
HETATM    4  C4  UNL     1     -34.352   8.070   3.171  1.00 20.00     0.007 C 
HETATM    5  C5  UNL     1     -34.961   7.029   4.117  1.00 20.00     0.032 C 
HETATM    6  C6  UNL     1     -33.654   5.177   2.936  1.00 20.00     0.036 C 
HETATM    7  C7  UNL     1     -32.998   7.580   2.683  1.00 20.00    -0.010 C 
HETATM    8  C8  UNL     1     -33.134   6.234   1.975  1.00 20.00    -0.008 C 
HETATM    9  C9  UNL     1     -35.009   5.621   3.504  1.00 20.00     0.118 C 
ENDROOT
BRANCH   9  10
HETATM   10  O10 UNL     1     -35.416   4.682   4.493  1.00 20.00    -0.396 OA
HETATM   11  H26 UNL     1     -36.297   4.958   4.793  1.00 20.00     0.210 HD
ENDBRANCH   9  10
TORSDOF 1
