REMARK  3 active torsions:
REMARK  status: ('A' for Active; 'I' for Inactive)
REMARK    1  A    between atoms: C4_4  and  C5_5 
REMARK    2  A    between atoms: C4_4  and  C6_6 
REMARK    3  A    between atoms: C5_5  and  N7_7 
ROOT
HETATM    1  C1  UNL     1     -32.324   8.823   1.020  1.00 20.00     0.157 C 
HETATM    2  N7  UNL     1     -32.373   8.161   1.989  1.00 20.00    -0.276 NA
HETATM    3  S8  UNL     1     -32.262   9.744  -0.278  1.00 20.00    -0.055 SA
ENDROOT
BRANCH   2   4
HETATM    4  C5  UNL     1     -32.181   6.727   1.767  1.00 20.00     0.151 C 
BRANCH   4   5
HETATM    5  C4  UNL     1     -33.444   5.966   2.157  1.00 20.00     0.026 C 
BRANCH   5   6
HETATM    6  C6  UNL     1     -33.842   6.083   3.642  1.00 20.00    -0.021 C 
HETATM    7  C2  UNL     1     -34.091   7.552   3.996  1.00 20.00     0.009 C 
HETATM    8  C3  UNL     1     -35.081   5.254   3.983  1.00 20.00     0.009 C 
ENDBRANCH   5   6
ENDBRANCH   4   5
ENDBRANCH   2   4
TORSDOF 3
