REMARK  1 active torsions:
REMARK  status: ('A' for Active; 'I' for Inactive)
REMARK    1  A    between atoms: C1_1  and  C6_6 
ROOT
HETATM    1  C2  UNL     1     -31.344   5.595   1.956  1.00 20.00     0.005 C 
HETATM    2  C3  UNL     1     -32.778   5.088   1.752  1.00 20.00     0.006 C 
HETATM    3  C4  UNL     1     -32.197   7.886   2.493  1.00 20.00     0.017 C 
HETATM    4  C5  UNL     1     -32.429   6.938   0.315  1.00 20.00     0.010 C 
HETATM    5  C6  UNL     1     -33.648   7.421   2.290  1.00 20.00     0.059 C 
HETATM    6  C7  UNL     1     -31.420   7.048   1.460  1.00 20.00    -0.013 C 
HETATM    7  C8  UNL     1     -33.513   6.328   1.209  1.00 20.00    -0.003 C 
ENDROOT
BRANCH   5   8
HETATM    8  C1  UNL     1     -34.300   6.944   3.549  1.00 20.00     0.127 C 
HETATM    9  C9  UNL     1     -34.427   7.945   4.666  1.00 20.00     0.091 C 
HETATM   10  O10 UNL     1     -34.714   5.792   3.665  1.00 20.00    -0.298 OA
ENDBRANCH   5   8
TORSDOF 1
