REMARK  0 active torsions:
REMARK  status: ('A' for Active; 'I' for Inactive)
ROOT
HETATM    1  C1  UNL     1     -33.130   6.274   1.947  1.00 20.00     0.131 C 
HETATM    2  C2  UNL     1     -32.485   7.107   0.864  1.00 20.00     0.087 C 
HETATM    3  C3  UNL     1     -33.536   8.524   2.514  1.00 20.00     0.021 C 
HETATM    4  C4  UNL     1     -33.610   7.116   3.110  1.00 20.00     0.052 C 
HETATM    5  C5  UNL     1     -32.353   8.489   1.528  1.00 20.00    -0.041 C 
HETATM    6  C6  UNL     1     -35.006   6.742   3.569  1.00 20.00     0.018 C 
HETATM    7  C7  UNL     1     -31.008   8.616   2.265  1.00 20.00     0.015 C 
HETATM    8  C8  UNL     1     -32.465   9.614   0.495  1.00 20.00     0.015 C 
HETATM    9  O9  UNL     1     -33.248   5.056   1.882  1.00 20.00    -0.298 OA
ENDROOT
TORSDOF 0
