REMARK  2 active torsions:
REMARK  status: ('A' for Active; 'I' for Inactive)
REMARK    1  A    between atoms: C7_7  and  C10_10 
REMARK    2  A    between atoms: C8_8  and  C9_9 
ROOT
HETATM    1  C1  UNL     1     -33.426   5.725   2.238  1.00 20.00    -0.019 A 
HETATM    2  C3  UNL     1     -33.904   5.593   3.481  1.00 20.00    -0.087 A 
HETATM    3  C5  UNL     1     -34.383   6.890   4.055  1.00 20.00     0.039 A 
HETATM    4  C8  UNL     1     -33.514   7.129   1.737  1.00 20.00     0.021 A 
HETATM    5  C10 UNL     1     -34.138   7.917   2.940  1.00 20.00     0.005 A 
HETATM    6  C11 UNL     1     -33.973   4.338   4.274  1.00 20.00     0.043 C 
ENDROOT
BRANCH   4   7
HETATM    7  C9  UNL     1     -32.154   7.844   1.531  1.00 20.00     0.022 C 
HETATM    8  C4  UNL     1     -32.463   9.245   1.040  1.00 20.00    -0.082 C 
HETATM    9  C2  UNL     1     -32.993   9.922   2.072  1.00 20.00    -0.019 C 
HETATM   10  C12 UNL     1     -32.240   9.684  -0.356  1.00 20.00     0.043 C 
HETATM   11  C7  UNL     1     -33.042   8.973   3.250  1.00 20.00     0.014 C 
HETATM   12  C6  UNL     1     -31.747   8.203   2.967  1.00 20.00     0.018 C 
ENDBRANCH   4   7
TORSDOF 2
