REMARK  2 active torsions:
REMARK  status: ('A' for Active; 'I' for Inactive)
REMARK    1  A    between atoms: C2_2  and  C3_3 
REMARK    2  A    between atoms: C4_4  and  C5_5 
ROOT
HETATM    1  C3  UNL     1     -32.370   8.247   1.102  1.00 20.00    -0.001 C 
HETATM    2  C4  UNL     1     -32.775   8.568   2.340  1.00 20.00    -0.000 C 
ENDROOT
BRANCH   2   3
HETATM    3  C5  UNL     1     -33.110   7.580   3.341  1.00 20.00    -0.004 C 
HETATM    4  C6  UNL     1     -33.785   6.454   3.063  1.00 20.00    -0.031 C 
HETATM    5  C7  UNL     1     -34.136   5.425   4.087  1.00 20.00     0.036 C 
ENDBRANCH   2   3
BRANCH   1   6
HETATM    6  C2  UNL     1     -32.036   9.236   0.102  1.00 20.00    -0.010 C 
HETATM    7  C1  UNL     1     -32.728  10.367  -0.073  1.00 20.00     0.011 C 
ENDBRANCH   1   6
TORSDOF 2
