REMARK  2 active torsions:
REMARK  status: ('A' for Active; 'I' for Inactive)
REMARK    1  A    between atoms: C5_5  and  C7_7 
REMARK    2  A    between atoms: C6_6  and  O10_10 
ROOT
HETATM    1  C1  UNL     1     -32.846   6.381   1.235  1.00 20.00     0.006 A 
HETATM    2  C2  UNL     1     -32.362   7.640   3.361  1.00 20.00     0.006 A 
HETATM    3  C3  UNL     1     -33.840   5.721   1.849  1.00 20.00    -0.008 A 
HETATM    4  C4  UNL     1     -33.355   6.984   3.979  1.00 20.00    -0.008 A 
HETATM    5  C6  UNL     1     -31.998   7.412   1.921  1.00 20.00     0.163 A 
HETATM    6  C7  UNL     1     -34.225   5.968   3.285  1.00 20.00     0.044 A 
HETATM    7  C8  UNL     1     -35.699   6.365   3.386  1.00 20.00     0.031 C 
ENDROOT
BRANCH   6   8
HETATM    8  C5  UNL     1     -33.986   4.667   4.002  1.00 20.00     0.248 C 
HETATM    9  O9  UNL     1     -34.868   4.042   4.582  1.00 20.00    -0.305 OA
ENDBRANCH   6   8
BRANCH   5  10
HETATM   10  O10 UNL     1     -32.124   8.637   1.205  1.00 20.00    -0.388 OA
HETATM   11  H20 UNL     1     -31.813   8.463   0.303  1.00 20.00     0.210 HD
ENDBRANCH   5  10
TORSDOF 2
