REMARK  2 active torsions:
REMARK  status: ('A' for Active; 'I' for Inactive)
REMARK    1  A    between atoms: C1_1  and  C2_2 
REMARK    2  A    between atoms: C1_1  and  C3_3 
ROOT
HETATM    1  C3  UNL     1     -33.660   6.675   2.923  1.00 20.00     0.256 C 
HETATM    2  F4  UNL     1     -32.789   6.858   3.955  1.00 20.00    -0.207 F 
HETATM    3 CL5  UNL     1     -32.983   5.425   1.849  1.00 20.00    -0.066 Cl
HETATM    4 CL6  UNL     1     -35.206   6.110   3.603  1.00 20.00    -0.066 Cl
ENDROOT
BRANCH   1   5
HETATM    5  C1  UNL     1     -33.814   8.017   2.202  1.00 20.00     0.089 C 
BRANCH   5   6
HETATM    6  C2  UNL     1     -32.531   8.597   1.621  1.00 20.00     0.090 C 
HETATM    7 BR7  UNL     1     -32.935  10.259   0.681  1.00 20.00    -0.096 Br
ENDBRANCH   5   6
ENDBRANCH   1   5
TORSDOF 2
