REMARK  3 active torsions:
REMARK  status: ('A' for Active; 'I' for Inactive)
REMARK    1  A    between atoms: C5_5  and  C6_6 
REMARK    2  A    between atoms: C5_5  and  N8_8 
REMARK    3  A    between atoms: C6_6  and  N9_9 
ROOT
HETATM    1  C1  UNL     1     -32.499   9.214   0.339  1.00 20.00     0.157 C 
HETATM    2  N8  UNL     1     -32.364   8.941   1.473  1.00 20.00    -0.274 NA
HETATM    3  S10 UNL     1     -32.701   9.607  -1.191  1.00 20.00    -0.055 SA
ENDROOT
BRANCH   2   4
HETATM    4  C5  UNL     1     -31.476   7.806   1.732  1.00 20.00     0.172 C 
BRANCH   4   5
HETATM    5  C6  UNL     1     -32.279   6.510   1.748  1.00 20.00     0.172 C 
BRANCH   5   6
HETATM    6  N9  UNL     1     -33.344   6.509   2.747  1.00 20.00    -0.280 N 
HETATM    7  C4  UNL     1     -33.791   7.586   3.454  1.00 20.00     0.113 A 
HETATM    8  C2  UNL     1     -34.793   7.112   4.266  1.00 20.00     0.040 A 
HETATM    9  C3  UNL     1     -34.867   5.738   3.968  1.00 20.00     0.140 A 
HETATM   10  N7  UNL     1     -33.983   5.363   3.040  1.00 20.00    -0.185 NA
ENDBRANCH   5   6
ENDBRANCH   4   5
ENDBRANCH   2   4
TORSDOF 3
