REMARK  2 active torsions:
REMARK  status: ('A' for Active; 'I' for Inactive)
REMARK    1  A    between atoms: C2_2  and  C3_3 
REMARK    2  A    between atoms: C3_3  and  C4_4 
ROOT
HETATM    1  C1  UNL     1     -34.785   6.563   4.187  1.00 20.00     0.059 C 
HETATM    2  C2  UNL     1     -34.254   7.901   3.894  1.00 20.00     0.132 C 
HETATM    3  N5  UNL     1     -35.206   5.507   4.419  1.00 20.00    -0.197 NA
ENDROOT
BRANCH   2   4
HETATM    4  C3  UNL     1     -32.825   7.820   3.362  1.00 20.00     0.131 C 
BRANCH   4   5
HETATM    5  C4  UNL     1     -32.748   7.042   2.066  1.00 20.00     0.388 C 
HETATM    6  F6  UNL     1     -33.148   5.764   2.235  1.00 20.00    -0.171 F 
HETATM    7  F7  UNL     1     -33.523   7.599   1.111  1.00 20.00    -0.171 F 
HETATM    8  F8  UNL     1     -31.479   7.018   1.602  1.00 20.00    -0.171 F 
ENDBRANCH   4   5
ENDBRANCH   2   4
TORSDOF 2
