REMARK  2 active torsions:
REMARK  status: ('A' for Active; 'I' for Inactive)
REMARK    1  A    between atoms: C1_1  and  C2_2 
REMARK    2  A    between atoms: C1_1  and  C3_3 
ROOT
HETATM    1  C1  UNL     1     -32.933   7.479   2.862  1.00 20.00     0.341 C 
HETATM    2  F4  UNL     1     -33.086   8.829   2.744  1.00 20.00    -0.234 F 
ENDROOT
BRANCH   1   3
HETATM    3  C2  UNL     1     -32.531   6.933   1.510  1.00 20.00     0.395 C 
HETATM    4  F5  UNL     1     -32.361   5.590   1.601  1.00 20.00    -0.211 F 
HETATM    5  F6  UNL     1     -31.339   7.454   1.132  1.00 20.00    -0.211 F 
ENDBRANCH   1   3
BRANCH   1   6
HETATM    6  C3  UNL     1     -34.234   6.904   3.366  1.00 20.00     0.423 C 
HETATM    7  F7  UNL     1     -34.589   7.482   4.535  1.00 20.00    -0.168 F 
HETATM    8  F8  UNL     1     -34.126   5.575   3.585  1.00 20.00    -0.168 F 
HETATM    9  F9  UNL     1     -35.238   7.100   2.486  1.00 20.00    -0.168 F 
ENDBRANCH   1   6
TORSDOF 2
