REMARK  1 active torsions:
REMARK  status: ('A' for Active; 'I' for Inactive)
REMARK    1  A    between atoms: C2_2  and  C3_3 
ROOT
HETATM    1  C1  UNL     1     -33.019   7.878   2.629  1.00 20.00     0.101 A 
HETATM    2  C2  UNL     1     -33.645   6.692   2.957  1.00 20.00     0.118 A 
HETATM    3  N4  UNL     1     -33.247   5.584   2.225  1.00 20.00    -0.166 NA
HETATM    4  N5  UNL     1     -32.321   5.899   1.333  1.00 20.00    -0.037 NA
HETATM    5  S7  UNL     1     -31.916   7.524   1.363  1.00 20.00    -0.008 SA
ENDROOT
BRANCH   2   6
HETATM    6  C3  UNL     1     -34.644   6.566   3.979  1.00 20.00     0.292 C 
HETATM    7  O6  UNL     1     -35.206   5.495   4.272  1.00 20.00    -0.300 OA
ENDBRANCH   2   6
TORSDOF 1
