REMARK  1 active torsions:
REMARK  status: ('A' for Active; 'I' for Inactive)
REMARK    1  A    between atoms: C1_1  and  C4_4 
ROOT
HETATM    1  C3  UNL     1     -33.095   7.956   3.356  1.00 20.00    -0.024 C 
HETATM    2  C4  UNL     1     -32.777   7.527   2.117  1.00 20.00    -0.066 C 
HETATM    3  C6  UNL     1     -33.595   7.163   4.521  1.00 20.00     0.036 C 
HETATM    4  C7  UNL     1     -32.883   6.093   1.668  1.00 20.00     0.048 C 
ENDROOT
BRANCH   2   5
HETATM    5  C1  UNL     1     -32.301   8.508   1.138  1.00 20.00     0.002 C 
HETATM    6  C2  UNL     1     -32.764   9.755   0.958  1.00 20.00    -0.030 C 
HETATM    7  C5  UNL     1     -32.221  10.697  -0.068  1.00 20.00     0.036 C 
ENDBRANCH   2   5
TORSDOF 1
