REMARK  0 active torsions:
REMARK  status: ('A' for Active; 'I' for Inactive)
ROOT
HETATM    1  C1  UNL     1     -33.805   6.421   0.823  1.00 20.00     0.009 C 
HETATM    2  C2  UNL     1     -32.032   8.163   1.156  1.00 20.00     0.009 C 
HETATM    3  C3  UNL     1     -31.744   5.876   2.146  1.00 20.00     0.009 C 
HETATM    4  C4  UNL     1     -34.243   8.387   2.316  1.00 20.00     0.048 C 
HETATM    5  C5  UNL     1     -33.957   6.102   3.305  1.00 20.00     0.048 C 
HETATM    6  C6  UNL     1     -32.184   7.843   3.638  1.00 20.00     0.048 C 
HETATM    7  C7  UNL     1     -33.547   7.926   1.024  1.00 20.00    -0.011 C 
HETATM    8  C8  UNL     1     -33.258   5.623   2.021  1.00 20.00    -0.011 C 
HETATM    9  C9  UNL     1     -31.473   7.377   2.356  1.00 20.00    -0.011 C 
HETATM   10  C10 UNL     1     -33.693   7.599   3.511  1.00 20.00     0.104 C 
HETATM   11  F11 UNL     1     -34.312   8.012   4.644  1.00 20.00    -0.243 F 
ENDROOT
TORSDOF 0
