REMARK  0 active torsions:
REMARK  status: ('A' for Active; 'I' for Inactive)
ROOT
HETATM    1  C1  UNL     1     -32.003   7.933   2.185  1.00 20.00     0.000 C 
HETATM    2  C2  UNL     1     -32.716   8.519   3.404  1.00 20.00     0.001 C 
HETATM    3  C3  UNL     1     -32.885   6.919   1.456  1.00 20.00     0.001 C 
HETATM    4  C4  UNL     1     -33.201   7.422   4.350  1.00 20.00     0.009 C 
HETATM    5  C5  UNL     1     -33.370   5.819   2.398  1.00 20.00     0.009 C 
HETATM    6  C6  UNL     1     -35.547   6.630   3.563  1.00 20.00     0.010 A 
HETATM    7  C7  UNL     1     -34.973   5.533   4.413  1.00 20.00     0.010 A 
HETATM    8  C8  UNL     1     -34.051   6.417   3.607  1.00 20.00    -0.040 A 
ENDROOT
TORSDOF 0
