REMARK  2 active torsions:
REMARK  status: ('A' for Active; 'I' for Inactive)
REMARK    1  A    between atoms: C1_1  and  C3_3 
REMARK    2  A    between atoms: C2_2  and  C3_3 
ROOT
HETATM    1  C3  UNL     1     -33.570   6.354   2.920  1.00 20.00     0.358 C 
HETATM    2  F8  UNL     1     -32.813   5.754   3.873  1.00 20.00    -0.194 F 
HETATM    3  F9  UNL     1     -33.909   5.394   2.023  1.00 20.00    -0.194 F 
ENDROOT
BRANCH   1   4
HETATM    4  C1  UNL     1     -34.825   6.899   3.556  1.00 20.00     0.430 C 
HETATM    5  F4  UNL     1     -35.495   5.887   4.163  1.00 20.00    -0.208 F 
HETATM    6  F5  UNL     1     -34.508   7.794   4.522  1.00 20.00    -0.208 F 
ENDBRANCH   1   4
BRANCH   1   7
HETATM    7  C2  UNL     1     -32.743   7.410   2.227  1.00 20.00     0.430 C 
HETATM    8  F6  UNL     1     -32.361   8.344   3.134  1.00 20.00    -0.208 F 
HETATM    9  F7  UNL     1     -31.610   6.861   1.728  1.00 20.00    -0.208 F 
ENDBRANCH   1   7
TORSDOF 2
