REMARK  2 active torsions:
REMARK  status: ('A' for Active; 'I' for Inactive)
REMARK    1  A    between atoms: C1_1  and  C4_4 
REMARK    2  A    between atoms: C3_3  and  C4_4 
ROOT
HETATM    1  C4  UNL     1     -32.418   8.368   2.095  1.00 20.00     0.359 C 
HETATM    2  F10 UNL     1     -31.067   8.330   2.263  1.00 20.00    -0.192 F 
HETATM    3  F11 UNL     1     -32.888   9.233   3.035  1.00 20.00    -0.192 F 
ENDROOT
BRANCH   1   4
HETATM    4  C1  UNL     1     -32.987   6.993   2.256  1.00 20.00     0.238 C 
HETATM    5  C2  UNL     1     -33.888   6.635   3.176  1.00 20.00     0.307 C 
HETATM    6  F6  UNL     1     -34.343   5.367   3.244  1.00 20.00    -0.170 F 
HETATM    7  F7  UNL     1     -34.344   7.553   4.054  1.00 20.00    -0.170 F 
HETATM    8  F5  UNL     1     -32.543   6.032   1.411  1.00 20.00    -0.198 F 
ENDBRANCH   1   4
BRANCH   1   9
HETATM    9  C3  UNL     1     -32.710   8.947   0.727  1.00 20.00     0.432 C 
HETATM   10  F8  UNL     1     -32.129  10.165   0.601  1.00 20.00    -0.207 F 
HETATM   11  F9  UNL     1     -32.152   8.151  -0.221  1.00 20.00    -0.207 F 
ENDBRANCH   1   9
TORSDOF 2
