REMARK  1 active torsions:
REMARK  status: ('A' for Active; 'I' for Inactive)
REMARK    1  A    between atoms: C2_2  and  C3_3 
ROOT
HETATM    1  C1  UNL     1     -32.349   7.954   1.989  1.00 20.00    -0.019 C 
HETATM    2  C2  UNL     1     -33.025   6.800   2.139  1.00 20.00    -0.004 C 
HETATM    3  C4  UNL     1     -31.411   8.324   0.882  1.00 20.00     0.036 C 
HETATM    4  C5  UNL     1     -32.935   5.622   1.208  1.00 20.00     0.053 C 
ENDROOT
BRANCH   2   5
HETATM    5  C3  UNL     1     -33.963   6.605   3.316  1.00 20.00     0.247 C 
HETATM    6  O6  UNL     1     -34.523   7.602   3.776  1.00 20.00    -0.274 OA
HETATM    7 CL7  UNL     1     -34.237   5.002   3.977  1.00 20.00    -0.039 Cl
ENDBRANCH   2   5
TORSDOF 1
