REMARK  0 active torsions:
REMARK  status: ('A' for Active; 'I' for Inactive)
ROOT
HETATM    1  C1  UNL     1     -33.683   8.426   1.720  1.00 20.00     0.072 C 
HETATM    2  C2  UNL     1     -32.319   8.616   1.077  1.00 20.00     0.173 C 
HETATM    3  C3  UNL     1     -32.281   6.611   2.289  1.00 20.00     0.255 C 
HETATM    4  C4  UNL     1     -33.369   7.507   2.883  1.00 20.00     0.154 C 
HETATM    5  O5  UNL     1     -31.531   7.457   1.397  1.00 20.00    -0.367 OA
HETATM    6 CL6  UNL     1     -32.902   5.250   1.301  1.00 20.00    -0.092 Cl
HETATM    7 CL7  UNL     1     -32.668   8.465   4.239  1.00 20.00    -0.098 Cl
HETATM    8 CL8  UNL     1     -34.806   6.665   3.494  1.00 20.00    -0.098 Cl
ENDROOT
TORSDOF 0
