REMARK  1 active torsions:
REMARK  status: ('A' for Active; 'I' for Inactive)
REMARK    1  A    between atoms: C1_1  and  C6_6 
ROOT
HETATM    1  C2  UNL     1     -32.435   6.104   0.235  1.00 20.00     0.002 C 
HETATM    2  C3  UNL     1     -33.301   5.928   1.478  1.00 20.00     0.012 C 
HETATM    3  C4  UNL     1     -32.650   7.471  -0.415  1.00 20.00     0.009 C 
HETATM    4  C5  UNL     1     -33.312   8.433   1.830  1.00 20.00     0.021 C 
HETATM    5  C6  UNL     1     -33.093   7.063   2.480  1.00 20.00     0.055 C 
HETATM    6  C7  UNL     1     -32.455   8.653   0.562  1.00 20.00    -0.047 C 
HETATM    7  C9  UNL     1     -32.908   9.953  -0.130  1.00 20.00     0.015 C 
HETATM    8  C10 UNL     1     -30.968   8.810   0.934  1.00 20.00     0.015 C 
ENDROOT
BRANCH   5   9
HETATM    9  C1  UNL     1     -34.047   6.888   3.622  1.00 20.00     0.127 C 
HETATM   10  C8  UNL     1     -33.962   7.896   4.736  1.00 20.00     0.091 C 
HETATM   11  O11 UNL     1     -34.860   5.966   3.648  1.00 20.00    -0.298 OA
ENDBRANCH   5   9
TORSDOF 1
