REMARK  5 active torsions:
REMARK  status: ('A' for Active; 'I' for Inactive)
REMARK    1  A    between atoms: C1_1  and  C8_8 
REMARK    2  A    between atoms: C4_4  and  C6_6 
REMARK    3  A    between atoms: C5_5  and  C7_7 
REMARK    4  A    between atoms: C6_6  and  C8_8 
REMARK    5  A    between atoms: C7_7  and  C8_8 
ROOT
HETATM    1  C8  UNL     1     -33.205   7.195   2.754  1.00 20.00     0.072 C 
ENDROOT
BRANCH   1   2
HETATM    2  C1  UNL     1     -34.284   7.017   3.822  1.00 20.00     0.223 C 
HETATM    3  O9  UNL     1     -35.426   6.662   3.539  1.00 20.00    -0.279 OA
HETATM    4 CL10 UNL     1     -33.708   7.370   5.427  1.00 20.00    -0.043 Cl
ENDBRANCH   1   2
BRANCH   1   5
HETATM    5  C6  UNL     1     -32.970   5.856   2.027  1.00 20.00     0.013 C 
BRANCH   5   6
HETATM    6  C4  UNL     1     -31.607   5.727   1.336  1.00 20.00    -0.004 C 
HETATM    7  C2  UNL     1     -31.383   4.372   0.682  1.00 20.00     0.005 C 
ENDBRANCH   5   6
ENDBRANCH   1   5
BRANCH   1   8
HETATM    8  C7  UNL     1     -33.651   8.269   1.742  1.00 20.00     0.013 C 
BRANCH   8   9
HETATM    9  C5  UNL     1     -32.522   8.863   0.890  1.00 20.00    -0.004 C 
HETATM   10  C3  UNL     1     -33.004   9.874  -0.139  1.00 20.00     0.005 C 
ENDBRANCH   8   9
ENDBRANCH   1   8
TORSDOF 5
