REMARK  1 active torsions:
REMARK  status: ('A' for Active; 'I' for Inactive)
REMARK    1  A    between atoms: C5_5  and  C10_10 
ROOT
HETATM    1  C1  UNL     1     -32.847   8.525   2.810  1.00 20.00     0.011 C 
HETATM    2  C2  UNL     1     -32.929   6.702   1.056  1.00 20.00     0.011 C 
HETATM    3  C3  UNL     1     -33.620   7.681   3.828  1.00 20.00     0.079 C 
HETATM    4  C4  UNL     1     -33.180   5.762   2.239  1.00 20.00     0.079 C 
HETATM    5  C5  UNL     1     -33.215   8.182   1.364  1.00 20.00    -0.007 C 
HETATM    6  C6  UNL     1     -34.126   6.363   3.260  1.00 20.00     0.243 C 
HETATM    7  F11 UNL     1     -34.331   5.484   4.272  1.00 20.00    -0.206 F 
HETATM    8  F12 UNL     1     -35.338   6.560   2.676  1.00 20.00    -0.206 F 
ENDROOT
BRANCH   5   9
HETATM    9  C10 UNL     1     -32.484   9.091   0.377  1.00 20.00    -0.048 C 
HETATM   10  C7  UNL     1     -32.832  10.561   0.668  1.00 20.00     0.015 C 
HETATM   11  C8  UNL     1     -32.909   8.746  -1.060  1.00 20.00     0.015 C 
HETATM   12  C9  UNL     1     -30.965   8.894   0.517  1.00 20.00     0.015 C 
ENDBRANCH   5   9
TORSDOF 1
