REMARK  2 active torsions:
REMARK  status: ('A' for Active; 'I' for Inactive)
REMARK    1  A    between atoms: C5_5  and  C6_6 
REMARK    2  A    between atoms: C5_5  and  N7_7 
ROOT
HETATM    1  C1  UNL     1     -33.115   7.714   3.254  1.00 20.00     0.157 C 
HETATM    2  N7  UNL     1     -32.270   7.826   2.448  1.00 20.00    -0.275 NA
HETATM    3  S8  UNL     1     -34.240   7.558   4.371  1.00 20.00    -0.055 SA
ENDROOT
BRANCH   2   4
HETATM    4  C5  UNL     1     -32.750   8.017   1.076  1.00 20.00     0.158 C 
BRANCH   4   5
HETATM    5  C6  UNL     1     -32.290   9.376   0.510  1.00 20.00    -0.033 C 
HETATM    6  C2  UNL     1     -32.811   9.574  -0.924  1.00 20.00     0.016 C 
HETATM    7  C3  UNL     1     -30.751   9.398   0.483  1.00 20.00     0.016 C 
HETATM    8  C4  UNL     1     -32.785  10.531   1.397  1.00 20.00     0.016 C 
ENDBRANCH   4   5
ENDBRANCH   2   4
TORSDOF 2
