REMARK  0 active torsions:
REMARK  status: ('A' for Active; 'I' for Inactive)
ROOT
HETATM    1  C1  UNL     1     -32.286   9.101   1.216  1.00 20.00     0.071 C 
HETATM    2  C2  UNL     1     -34.391   6.737   3.439  1.00 20.00    -0.000 C 
HETATM    3  C3  UNL     1     -34.082   7.682   4.334  1.00 20.00    -0.000 C 
HETATM    4  C4  UNL     1     -33.550   6.190   2.407  1.00 20.00    -0.002 C 
HETATM    5  C5  UNL     1     -32.833   8.383   4.483  1.00 20.00    -0.002 C 
HETATM    6  C6  UNL     1     -32.481   6.760   1.834  1.00 20.00    -0.004 C 
HETATM    7  C7  UNL     1     -31.888   8.578   3.554  1.00 20.00    -0.004 C 
HETATM    8  C8  UNL     1     -31.804   8.066   2.143  1.00 20.00     0.138 C 
HETATM    9  N9  UNL     1     -32.667   9.917   0.484  1.00 20.00    -0.196 NA
ENDROOT
TORSDOF 0
