REMARK  2 active torsions:
REMARK  status: ('A' for Active; 'I' for Inactive)
REMARK    1  A    between atoms: C1_1  and  C2_2 
REMARK    2  A    between atoms: C1_1  and  C3_3 
ROOT
HETATM    1  C3  UNL     1     -33.310   6.435   2.207  1.00 20.00     0.390 C 
HETATM    2  F5  UNL     1     -32.450   5.625   1.550  1.00 20.00    -0.171 F 
HETATM    3  F6  UNL     1     -34.274   6.802   1.337  1.00 20.00    -0.171 F 
HETATM    4  F7  UNL     1     -32.630   7.543   2.571  1.00 20.00    -0.171 F 
ENDROOT
BRANCH   1   5
HETATM    5  C1  UNL     1     -33.894   5.723   3.409  1.00 20.00     0.148 C 
BRANCH   5   6
HETATM    6  C2  UNL     1     -34.883   6.592   4.164  1.00 20.00     0.230 C 
HETATM    7  F4  UNL     1     -34.254   7.716   4.598  1.00 20.00    -0.255 F 
ENDBRANCH   5   6
ENDBRANCH   1   5
TORSDOF 2
