REMARK  2 active torsions:
REMARK  status: ('A' for Active; 'I' for Inactive)
REMARK    1  A    between atoms: C1_1  and  C3_3 
REMARK    2  A    between atoms: C2_2  and  C3_3 
ROOT
HETATM    1  C3  UNL     1     -33.295   6.562   1.977  1.00 20.00     0.139 C 
HETATM    2 CL6  UNL     1     -32.072   5.382   1.415  1.00 20.00    -0.120 Cl
ENDROOT
BRANCH   1   3
HETATM    3  C1  UNL     1     -33.926   6.066   3.268  1.00 20.00     0.244 C 
HETATM    4  F4  UNL     1     -34.877   6.945   3.684  1.00 20.00    -0.254 F 
ENDBRANCH   1   3
BRANCH   1   5
HETATM    5  C2  UNL     1     -32.639   7.923   2.153  1.00 20.00     0.244 C 
HETATM    6  F5  UNL     1     -32.092   8.312   0.970  1.00 20.00    -0.254 F 
ENDBRANCH   1   5
TORSDOF 2
