REMARK  0 active torsions:
REMARK  status: ('A' for Active; 'I' for Inactive)
ROOT
HETATM    1  C1  UNL     1     -33.746   7.778   1.738  1.00 20.00     0.048 C 
HETATM    2  C2  UNL     1     -31.654   8.422   2.628  1.00 20.00     0.177 C 
HETATM    3  C3  UNL     1     -32.335   8.159   1.291  1.00 20.00    -0.023 C 
HETATM    4  C4  UNL     1     -33.567   7.205   3.153  1.00 20.00     0.054 C 
HETATM    5  C5  UNL     1     -32.325   9.396   0.392  1.00 20.00     0.017 C 
HETATM    6  C6  UNL     1     -31.652   6.995   0.555  1.00 20.00     0.017 C 
HETATM    7  C7  UNL     1     -33.809   5.697   3.210  1.00 20.00     0.045 C 
HETATM    8  C8  UNL     1     -34.477   7.911   4.162  1.00 20.00     0.045 C 
HETATM    9  O9  UNL     1     -32.200   7.456   3.535  1.00 20.00    -0.380 OA
ENDROOT
TORSDOF 0
