REMARK  0 active torsions:
REMARK  status: ('A' for Active; 'I' for Inactive)
ROOT
HETATM    1  C1  UNL     1     -32.333   6.661   1.702  1.00 20.00     0.027 A 
HETATM    2  C2  UNL     1     -32.970   7.916   1.160  1.00 20.00     0.027 A 
HETATM    3  C3  UNL     1     -32.934   7.675   2.656  1.00 20.00     0.120 A 
HETATM    4  C4  UNL     1     -32.960   5.336   1.433  1.00 20.00     0.014 C 
HETATM    5  C5  UNL     1     -32.126   8.944   0.487  1.00 20.00     0.014 C 
HETATM    6 CL6  UNL     1     -34.465   7.333   3.461  1.00 20.00    -0.101 Cl
HETATM    7 CL7  UNL     1     -31.822   8.591   3.674  1.00 20.00    -0.101 Cl
ENDROOT
TORSDOF 0
