REMARK  2 active torsions:
REMARK  status: ('A' for Active; 'I' for Inactive)
REMARK    1  A    between atoms: C1_1  and  C4_4 
REMARK    2  A    between atoms: C3_3  and  C4_4 
ROOT
HETATM    1  C4  UNL     1     -33.082   6.363   1.856  1.00 20.00     0.359 C 
HETATM    2  F8  UNL     1     -32.397   5.251   1.473  1.00 20.00    -0.191 F 
HETATM    3  F9  UNL     1     -33.951   6.639   0.848  1.00 20.00    -0.191 F 
ENDROOT
BRANCH   1   4
HETATM    4  C1  UNL     1     -33.817   6.116   3.153  1.00 20.00     0.200 C 
HETATM    5  C2  UNL     1     -33.664   4.761   3.791  1.00 20.00     0.098 C 
HETATM    6  O5  UNL     1     -34.540   6.979   3.652  1.00 20.00    -0.292 OA
ENDBRANCH   1   4
BRANCH   1   7
HETATM    7  C3  UNL     1     -32.107   7.509   1.986  1.00 20.00     0.432 C 
HETATM    8  F6  UNL     1     -31.502   7.740   0.794  1.00 20.00    -0.207 F 
HETATM    9  F7  UNL     1     -32.787   8.640   2.302  1.00 20.00    -0.207 F 
ENDBRANCH   1   7
TORSDOF 2
