REMARK  1 active torsions:
REMARK  status: ('A' for Active; 'I' for Inactive)
REMARK    1  A    between atoms: C1_1  and  C6_6 
ROOT
HETATM    1  C2  UNL     1     -33.415   5.978   2.555  1.00 20.00     0.005 C 
HETATM    2  C3  UNL     1     -33.591   7.415   3.074  1.00 20.00     0.006 C 
HETATM    3  C4  UNL     1     -32.771   6.845   0.291  1.00 20.00     0.020 C 
HETATM    4  C5  UNL     1     -31.395   7.183   2.203  1.00 20.00     0.010 C 
HETATM    5  C6  UNL     1     -33.010   8.276   0.803  1.00 20.00     0.091 C 
HETATM    6  C7  UNL     1     -32.261   6.111   1.546  1.00 20.00    -0.013 C 
HETATM    7  C8  UNL     1     -32.539   8.199   2.271  1.00 20.00     0.000 C 
ENDROOT
BRANCH   5   8
HETATM    8  C1  UNL     1     -32.169   9.289   0.049  1.00 20.00     0.177 C 
HETATM    9  O9  UNL     1     -30.926   9.072   0.059  1.00 20.00    -0.648 OA
HETATM   10  O10 UNL     1     -32.825  10.222  -0.493  1.00 20.00    -0.648 OA
ENDBRANCH   5   8
TORSDOF 1
