REMARK  2 active torsions:
REMARK  status: ('A' for Active; 'I' for Inactive)
REMARK    1  A    between atoms: C1_1  and  C4_4 
REMARK    2  A    between atoms: C1_1  and  O8_8 
ROOT
HETATM    1  C2  UNL     1     -34.616   5.450   4.221  1.00 20.00     0.020 A 
HETATM    2  C3  UNL     1     -35.465   6.609   3.799  1.00 20.00     0.020 A 
HETATM    3  C4  UNL     1     -33.959   6.760   3.841  1.00 20.00     0.044 A 
HETATM    4  C5  UNL     1     -33.384   7.590   4.962  1.00 20.00     0.026 C 
ENDROOT
BRANCH   3   5
HETATM    5  C1  UNL     1     -33.252   6.804   2.538  1.00 20.00     0.266 C 
HETATM    6  O7  UNL     1     -33.173   5.856   1.769  1.00 20.00    -0.264 OA
BRANCH   5   7
HETATM    7  O8  UNL     1     -32.720   8.046   2.350  1.00 20.00    -0.326 OA
HETATM    8  C6  UNL     1     -32.005   8.229   1.124  1.00 20.00     0.213 C 
ENDBRANCH   5   7
ENDBRANCH   3   5
TORSDOF 2
