REMARK  1 active torsions:
REMARK  status: ('A' for Active; 'I' for Inactive)
REMARK    1  A    between atoms: C4_4  and  C7_7 
ROOT
HETATM    1  C1  UNL     1     -32.082   9.695   0.731  1.00 20.00     0.063 C 
HETATM    2  C7  UNL     1     -31.499   9.041   1.913  1.00 20.00     0.165 C 
HETATM    3  N8  UNL     1     -32.541  10.210  -0.202  1.00 20.00    -0.197 NA
ENDROOT
BRANCH   2   4
HETATM    4  C4  UNL     1     -32.446   8.040   2.481  1.00 20.00    -0.006 A 
HETATM    5  C3  UNL     1     -33.157   8.349   3.629  1.00 20.00     0.128 A 
HETATM    6  N9  UNL     1     -34.037   7.512   4.222  1.00 20.00    -0.248 NA
HETATM    7  C6  UNL     1     -34.211   6.308   3.634  1.00 20.00     0.127 A 
HETATM    8  C2  UNL     1     -33.549   5.903   2.486  1.00 20.00     0.068 A 
HETATM    9 CL11 UNL     1     -35.336   5.279   4.419  1.00 20.00    -0.062 Cl
HETATM   10  C5  UNL     1     -32.651   6.792   1.904  1.00 20.00     0.045 A 
HETATM   11 CL10 UNL     1     -31.813   6.313   0.475  1.00 20.00    -0.084 Cl
ENDBRANCH   2   4
TORSDOF 1
