REMARK  0 active torsions:
REMARK  status: ('A' for Active; 'I' for Inactive)
ROOT
HETATM    1  C1  UNL     1     -32.113   6.559   0.924  1.00 20.00     0.031 A 
HETATM    2  C2  UNL     1     -33.548   7.974   2.285  1.00 20.00     0.043 A 
HETATM    3  C3  UNL     1     -33.332   5.624   2.752  1.00 20.00     0.033 A 
HETATM    4  C4  UNL     1     -32.448   5.446   1.696  1.00 20.00    -0.045 A 
HETATM    5  C5  UNL     1     -33.880   6.865   3.051  1.00 20.00     0.017 A 
HETATM    6  C6  UNL     1     -32.660   7.816   1.217  1.00 20.00     0.035 A 
HETATM    7  C7  UNL     1     -33.791   4.568   3.660  1.00 20.00     0.171 A 
HETATM    8  C8  UNL     1     -34.753   5.058   4.716  1.00 20.00     0.163 A 
HETATM    9  C9  UNL     1     -31.848   4.127   1.351  1.00 20.00     0.049 C 
HETATM   10  O10 UNL     1     -33.431   3.403   3.574  1.00 20.00    -0.291 OA
HETATM   11  S11 UNL     1     -34.975   6.840   4.436  1.00 20.00    -0.121 SA
HETATM   12 CL12 UNL     1     -32.233   9.179   0.253  1.00 20.00    -0.084 Cl
ENDROOT
TORSDOF 0
