REMARK  1 active torsions:
REMARK  status: ('A' for Active; 'I' for Inactive)
REMARK    1  A    between atoms: C1_1  and  C6_6 
ROOT
HETATM    1  C2  UNL     1     -31.872   6.454   1.640  1.00 20.00     0.005 C 
HETATM    2  C3  UNL     1     -33.376   6.200   1.472  1.00 20.00     0.006 C 
HETATM    3  C4  UNL     1     -32.296   7.799   3.708  1.00 20.00     0.016 C 
HETATM    4  C5  UNL     1     -33.017   8.540   1.558  1.00 20.00     0.010 C 
HETATM    5  C6  UNL     1     -33.811   7.576   3.572  1.00 20.00     0.051 C 
HETATM    6  C7  UNL     1     -31.826   7.868   2.243  1.00 20.00    -0.013 C 
HETATM    7  C8  UNL     1     -34.011   7.482   2.045  1.00 20.00    -0.003 C 
ENDROOT
BRANCH   5   8
HETATM    8  C1  UNL     1     -34.304   6.378   4.319  1.00 20.00     0.236 C 
HETATM    9  O9  UNL     1     -35.262   5.702   3.957  1.00 20.00    -0.306 OA
ENDBRANCH   5   8
TORSDOF 1
