REMARK  5 active torsions:
REMARK  status: ('A' for Active; 'I' for Inactive)
REMARK    1  A    between atoms: C3_3  and  C7_7 
REMARK    2  A    between atoms: C4_4  and  C8_8 
REMARK    3  A    between atoms: C7_7  and  C9_9 
REMARK    4  A    between atoms: C8_8  and  C10_10 
REMARK    5  A    between atoms: C9_9  and  C10_10 
ROOT
HETATM    1  C9  UNL     1     -33.065   6.047   2.094  1.00 20.00     0.004 C 
ENDROOT
BRANCH   1   2
HETATM    2  C7  UNL     1     -31.853   6.834   1.589  1.00 20.00     0.026 C 
BRANCH   2   3
HETATM    3  C3  UNL     1     -32.155   8.302   1.503  1.00 20.00    -0.031 C 
HETATM    4  C1  UNL     1     -32.108   9.008   0.364  1.00 20.00    -0.035 C 
HETATM    5  C5  UNL     1     -32.402  10.469   0.279  1.00 20.00     0.035 C 
ENDBRANCH   2   3
ENDBRANCH   1   2
BRANCH   1   6
HETATM    6  C10 UNL     1     -33.510   6.537   3.474  1.00 20.00     0.004 C 
BRANCH   6   7
HETATM    7  C8  UNL     1     -34.745   5.777   3.961  1.00 20.00     0.026 C 
BRANCH   7   8
HETATM    8  C4  UNL     1     -34.461   4.309   4.100  1.00 20.00    -0.031 C 
HETATM    9  C2  UNL     1     -33.265   3.810   4.444  1.00 20.00    -0.035 C 
HETATM   10  C6  UNL     1     -32.984   2.351   4.589  1.00 20.00     0.035 C 
ENDBRANCH   7   8
ENDBRANCH   6   7
ENDBRANCH   1   6
TORSDOF 5
