REMARK  0 active torsions:
REMARK  status: ('A' for Active; 'I' for Inactive)
ROOT
HETATM    1  C1  UNL     1     -32.725   5.245   1.681  1.00 20.00    -0.003 A 
HETATM    2  C2  UNL     1     -33.582   5.821   2.700  1.00 20.00    -0.003 A 
HETATM    3  C3  UNL     1     -32.011   6.241   1.123  1.00 20.00    -0.013 A 
HETATM    4  C4  UNL     1     -33.362   7.149   2.729  1.00 20.00    -0.013 A 
HETATM    5  C5  UNL     1     -32.425   8.802   0.956  1.00 20.00     0.019 A 
HETATM    6  C6  UNL     1     -31.338   8.600   1.984  1.00 20.00     0.019 A 
HETATM    7  C7  UNL     1     -32.351   7.532   1.736  1.00 20.00    -0.005 A 
ENDROOT
TORSDOF 0
