REMARK  2 active torsions:
REMARK  status: ('A' for Active; 'I' for Inactive)
REMARK    1  A    between atoms: C2_2  and  C6_6 
REMARK    2  A    between atoms: C2_2  and  O9_9 
ROOT
HETATM    1  C1  UNL     1     -32.447   8.281   1.184  1.00 20.00     0.079 C 
HETATM    2  C3  UNL     1     -31.142   6.709   2.542  1.00 20.00     0.042 C 
HETATM    3  C4  UNL     1     -33.096   5.916   1.160  1.00 20.00     0.042 C 
HETATM    4  C6  UNL     1     -32.542   7.061   2.019  1.00 20.00     0.129 C 
HETATM    5  N7  UNL     1     -32.371   9.236   0.529  1.00 20.00    -0.196 NA
ENDROOT
BRANCH   4   6
HETATM    6  C2  UNL     1     -33.481   7.316   3.201  1.00 20.00     0.280 C 
HETATM    7  O8  UNL     1     -33.308   8.178   4.055  1.00 20.00    -0.263 OA
BRANCH   6   8
HETATM    8  O9  UNL     1     -34.536   6.447   3.169  1.00 20.00    -0.325 OA
HETATM    9  C5  UNL     1     -35.488   6.586   4.229  1.00 20.00     0.213 C 
ENDBRANCH   6   8
ENDBRANCH   4   6
TORSDOF 2
