REMARK  1 active torsions:
REMARK  status: ('A' for Active; 'I' for Inactive)
REMARK    1  A    between atoms: C1_1  and  C6_6 
ROOT
HETATM    1  C2  UNL     1     -32.664   5.239   3.073  1.00 20.00     0.038 C 
HETATM    2  C3  UNL     1     -34.498   6.832   3.697  1.00 20.00     0.038 C 
HETATM    3  C4  UNL     1     -33.497   4.137   3.717  1.00 20.00     0.168 C 
HETATM    4  C5  UNL     1     -35.230   5.642   4.306  1.00 20.00     0.168 C 
HETATM    5  C6  UNL     1     -33.565   6.367   2.586  1.00 20.00     0.051 C 
HETATM    6  O8  UNL     1     -34.303   4.662   4.773  1.00 20.00    -0.391 OA
ENDROOT
BRANCH   5   7
HETATM    7  C1  UNL     1     -32.687   7.535   2.182  1.00 20.00     0.235 C 
HETATM    8  O7  UNL     1     -31.547   7.406   1.747  1.00 20.00    -0.306 OA
ENDBRANCH   5   7
TORSDOF 1
