REMARK  1 active torsions:
REMARK  status: ('A' for Active; 'I' for Inactive)
REMARK    1  A    between atoms: C1_1  and  C6_6 
ROOT
HETATM    1  C2  UNL     1     -33.133   5.140   2.430  1.00 20.00     0.022 C 
HETATM    2  C3  UNL     1     -34.188   6.853   3.991  1.00 20.00     0.022 C 
HETATM    3  C4  UNL     1     -32.867   6.154   1.325  1.00 20.00     0.074 C 
HETATM    4  C5  UNL     1     -34.008   8.009   3.015  1.00 20.00     0.074 C 
HETATM    5  C6  UNL     1     -34.344   5.501   3.293  1.00 20.00     0.048 C 
HETATM    6  S8  UNL     1     -32.521   7.806   1.994  1.00 20.00    -0.169 SA
ENDROOT
BRANCH   5   7
HETATM    7  C1  UNL     1     -34.547   4.441   4.333  1.00 20.00     0.235 C 
HETATM    8  O7  UNL     1     -33.814   3.466   4.457  1.00 20.00    -0.306 OA
ENDBRANCH   5   7
TORSDOF 1
