REMARK  3 active torsions:
REMARK  status: ('A' for Active; 'I' for Inactive)
REMARK    1  A    between atoms: C4_4  and  C6_6 
REMARK    2  A    between atoms: C5_5  and  C6_6 
REMARK    3  A    between atoms: C6_6  and  N7_7 
ROOT
HETATM    1  C1  UNL     1     -32.295   8.515   1.320  1.00 20.00     0.158 C 
HETATM    2  N7  UNL     1     -31.980   7.589   1.967  1.00 20.00    -0.270 NA
HETATM    3  S8  UNL     1     -32.689   9.786   0.445  1.00 20.00    -0.055 SA
ENDROOT
BRANCH   2   4
HETATM    4  C6  UNL     1     -33.052   6.610   2.199  1.00 20.00     0.109 C 
BRANCH   4   5
HETATM    5  C4  UNL     1     -33.805   7.002   3.476  1.00 20.00     0.023 C 
HETATM    6  C2  UNL     1     -34.955   6.053   3.789  1.00 20.00     0.007 C 
ENDBRANCH   4   5
BRANCH   4   7
HETATM    7  C5  UNL     1     -32.422   5.219   2.340  1.00 20.00     0.023 C 
HETATM    8  C3  UNL     1     -31.645   4.813   1.122  1.00 20.00     0.007 C 
ENDBRANCH   4   7
ENDBRANCH   2   4
TORSDOF 3
