REMARK  4 active torsions:
REMARK  status: ('A' for Active; 'I' for Inactive)
REMARK    1  A    between atoms: C3_3  and  C6_6 
REMARK    2  A    between atoms: C5_5  and  C7_7 
REMARK    3  A    between atoms: C6_6  and  C8_8 
REMARK    4  A    between atoms: C7_7  and  C8_8 
ROOT
HETATM    1  C1  UNL     1     -34.572   4.381   4.326  1.00 20.00     0.059 C 
HETATM    2  C5  UNL     1     -35.427   5.575   4.293  1.00 20.00     0.124 C 
HETATM    3  N9  UNL     1     -33.898   3.437   4.352  1.00 20.00    -0.197 NA
ENDROOT
BRANCH   2   4
HETATM    4  C7  UNL     1     -34.615   6.863   4.138  1.00 20.00     0.014 C 
BRANCH   4   5
HETATM    5  C8  UNL     1     -33.796   6.895   2.841  1.00 20.00     0.005 C 
BRANCH   5   6
HETATM    6  C6  UNL     1     -32.916   8.146   2.716  1.00 20.00     0.033 C 
BRANCH   6   7
HETATM    7  C3  UNL     1     -32.029   8.172   1.493  1.00 20.00    -0.093 C 
HETATM    8  C2  UNL     1     -32.151   9.130   0.560  1.00 20.00     0.014 C 
HETATM    9  C4  UNL     1     -30.981   7.103   1.383  1.00 20.00     0.042 C 
ENDBRANCH   6   7
ENDBRANCH   5   6
ENDBRANCH   4   5
ENDBRANCH   2   4
TORSDOF 4
