REMARK  1 active torsions:
REMARK  status: ('A' for Active; 'I' for Inactive)
REMARK    1  A    between atoms: C2_2  and  C7_7 
ROOT
HETATM    1  C1  UNL     1     -34.464   6.139   3.812  1.00 20.00     0.127 C 
HETATM    2  C3  UNL     1     -34.317   7.615   4.107  1.00 20.00     0.079 C 
HETATM    3  C4  UNL     1     -33.310   5.475   3.094  1.00 20.00     0.079 C 
HETATM    4  C5  UNL     1     -33.894   8.373   2.856  1.00 20.00     0.019 C 
HETATM    5  C6  UNL     1     -32.909   6.279   1.864  1.00 20.00     0.019 C 
HETATM    6  C7  UNL     1     -32.657   7.748   2.209  1.00 20.00     0.048 C 
HETATM    7  O8  UNL     1     -35.424   5.490   4.227  1.00 20.00    -0.298 OA
ENDROOT
BRANCH   6   8
HETATM    8  C2  UNL     1     -32.311   8.510   0.967  1.00 20.00     0.235 C 
HETATM    9  O9  UNL     1     -32.561   9.701   0.813  1.00 20.00    -0.306 OA
ENDBRANCH   6   8
TORSDOF 1
