REMARK  0 active torsions:
REMARK  status: ('A' for Active; 'I' for Inactive)
ROOT
HETATM    1  C1  UNL     1     -33.854   4.221   4.086  1.00 20.00     0.064 C 
HETATM    2  C2  UNL     1     -33.430   7.824   4.165  1.00 20.00     0.005 C 
HETATM    3  C3  UNL     1     -34.547   7.036   4.863  1.00 20.00     0.006 C 
HETATM    4  C4  UNL     1     -33.191   6.013   2.455  1.00 20.00     0.024 C 
HETATM    5  C5  UNL     1     -35.159   7.362   2.595  1.00 20.00     0.010 C 
HETATM    6  C6  UNL     1     -34.329   5.199   3.102  1.00 20.00     0.097 C 
HETATM    7  C7  UNL     1     -33.636   7.471   2.683  1.00 20.00    -0.013 C 
HETATM    8  C8  UNL     1     -35.237   6.300   3.696  1.00 20.00     0.003 C 
HETATM    9  N9  UNL     1     -33.479   3.447   4.864  1.00 20.00    -0.197 NA
ENDROOT
TORSDOF 0
