REMARK  0 active torsions:
REMARK  status: ('A' for Active; 'I' for Inactive)
ROOT
HETATM    1  C1  UNL     1     -34.514   6.471   3.523  1.00 20.00     0.018 A 
HETATM    2  C2  UNL     1     -33.427   5.443   3.710  1.00 20.00     0.018 A 
HETATM    3  C3  UNL     1     -33.572   6.154   2.380  1.00 20.00     0.083 A 
HETATM    4  C4  UNL     1     -34.467   7.747   4.293  1.00 20.00     0.012 C 
HETATM    5  C5  UNL     1     -33.789   4.012   3.917  1.00 20.00     0.012 C 
HETATM    6 BR6  UNL     1     -34.295   5.250   0.858  1.00 20.00    -0.072 Br
HETATM    7 BR7  UNL     1     -32.194   7.380   1.875  1.00 20.00    -0.072 Br
ENDROOT
TORSDOF 0
