REMARK  0 active torsions:
REMARK  status: ('A' for Active; 'I' for Inactive)
ROOT
HETATM    1  C1  UNL     1     -33.405   8.281   1.056  1.00 20.00     0.009 C 
HETATM    2  C2  UNL     1     -31.574   6.863   2.017  1.00 20.00     0.012 C 
HETATM    3  C3  UNL     1     -33.222   5.862   0.412  1.00 20.00     0.012 C 
HETATM    4  C4  UNL     1     -33.460   7.634   3.479  1.00 20.00     0.051 C 
HETATM    5  C5  UNL     1     -35.109   6.636   1.875  1.00 20.00     0.051 C 
HETATM    6  C6  UNL     1     -32.544   8.023   2.306  1.00 20.00    -0.010 C 
HETATM    7  C7  UNL     1     -34.204   7.016   0.691  1.00 20.00    -0.010 C 
HETATM    8  C8  UNL     1     -32.362   5.587   1.658  1.00 20.00     0.024 C 
HETATM    9  C9  UNL     1     -33.285   5.215   2.829  1.00 20.00     0.213 C 
HETATM   10  C10 UNL     1     -34.250   6.369   3.119  1.00 20.00     0.135 C 
HETATM   11  F11 UNL     1     -32.526   4.979   3.934  1.00 20.00    -0.246 F 
HETATM   12  F12 UNL     1     -35.057   6.030   4.154  1.00 20.00    -0.240 F 
ENDROOT
TORSDOF 0
