REMARK  1 active torsions:
REMARK  status: ('A' for Active; 'I' for Inactive)
REMARK    1  A    between atoms: C1_1  and  C3_3 
ROOT
HETATM    1  C1  UNL     1     -33.169   7.156   2.963  1.00 20.00     0.038 A 
HETATM    2  C2  UNL     1     -33.236   5.806   2.318  1.00 20.00     0.160 A 
HETATM    3  C4  UNL     1     -32.152   5.724   1.260  1.00 20.00     0.090 A 
HETATM    4  C5  UNL     1     -32.062   7.939   2.394  1.00 20.00     0.039 A 
HETATM    5  C6  UNL     1     -31.426   7.050   1.334  1.00 20.00     0.011 A 
HETATM    6  C7  UNL     1     -32.039   8.386   0.946  1.00 20.00    -0.035 A 
HETATM    7  C9  UNL     1     -33.313   8.433   0.139  1.00 20.00     0.016 C 
HETATM    8  C10 UNL     1     -31.080   9.498   0.595  1.00 20.00     0.016 C 
HETATM    9  O12 UNL     1     -34.030   4.921   2.589  1.00 20.00    -0.293 OA
ENDROOT
BRANCH   1  10
HETATM   10  C3  UNL     1     -34.044   7.508   3.909  1.00 20.00     0.155 C 
HETATM   11  C8  UNL     1     -35.107   6.497   4.310  1.00 20.00     0.096 C 
HETATM   12  O11 UNL     1     -34.162   8.582   4.572  1.00 20.00    -0.293 OA
ENDBRANCH   1  10
TORSDOF 1
