REMARK  2 active torsions:
REMARK  status: ('A' for Active; 'I' for Inactive)
REMARK    1  A    between atoms: C7_7  and  C8_8 
REMARK    2  A    between atoms: C9_9  and  C10_10 
ROOT
HETATM    1  C1  UNL     1     -34.904   6.207   4.590  1.00 20.00     0.047 C 
HETATM    2  C2  UNL     1     -34.716   7.435   4.061  1.00 20.00    -0.017 C 
HETATM    3  C5  UNL     1     -34.076   5.284   3.740  1.00 20.00     0.154 C 
HETATM    4  C7  UNL     1     -33.578   7.404   3.100  1.00 20.00     0.028 C 
HETATM    5  C10 UNL     1     -33.837   6.016   2.466  1.00 20.00     0.075 C 
HETATM    6  O11 UNL     1     -33.773   4.140   4.017  1.00 20.00    -0.293 OA
ENDROOT
BRANCH   5   7
HETATM    7  C9  UNL     1     -32.894   6.008   1.273  1.00 20.00     0.021 C 
HETATM    8  C4  UNL     1     -31.501   6.521   1.560  1.00 20.00    -0.025 C 
HETATM    9  C3  UNL     1     -31.594   7.837   1.831  1.00 20.00    -0.025 C 
HETATM   10  C8  UNL     1     -33.080   8.191   1.861  1.00 20.00     0.017 C 
HETATM   11  C6  UNL     1     -33.452   7.324   0.647  1.00 20.00     0.018 C 
ENDBRANCH   5   7
TORSDOF 2
