REMARK  1 active torsions:
REMARK  status: ('A' for Active; 'I' for Inactive)
REMARK    1  A    between atoms: C8_8  and  C12_12 
ROOT
HETATM    1  C1  UNL     1     -31.917   8.097  -0.078  1.00 20.00    -0.023 C 
HETATM    2  C2  UNL     1     -32.395   8.771   0.984  1.00 20.00    -0.081 C 
HETATM    3  C3  UNL     1     -31.520   6.646  -0.023  1.00 20.00     0.034 C 
HETATM    4  C4  UNL     1     -31.540   6.949   2.461  1.00 20.00     0.018 C 
HETATM    5  C5  UNL     1     -33.234   5.434   1.444  1.00 20.00     0.173 C 
HETATM    6  C6  UNL     1     -32.571   8.080   2.331  1.00 20.00     0.043 C 
HETATM    7  C7  UNL     1     -31.792   5.952   1.331  1.00 20.00     0.014 C 
HETATM    8  C8  UNL     1     -34.005   7.510   2.413  1.00 20.00     0.133 C 
HETATM    9  C9  UNL     1     -32.781  10.218   0.904  1.00 20.00     0.043 C 
HETATM   10  O13 UNL     1     -34.208   6.478   1.436  1.00 20.00    -0.384 OA
ENDROOT
BRANCH   8  11
HETATM   11  C12 UNL     1     -34.387   7.017   3.809  1.00 20.00     0.007 C 
HETATM   12  C10 UNL     1     -34.273   8.149   4.827  1.00 20.00     0.012 C 
HETATM   13  C11 UNL     1     -35.800   6.438   3.804  1.00 20.00     0.012 C 
ENDBRANCH   8  11
TORSDOF 1
