REMARK  1 active torsions:
REMARK  status: ('A' for Active; 'I' for Inactive)
REMARK    1  A    between atoms: C6_6  and  C7_7 
ROOT
HETATM    1  C1  UNL     1     -33.872   7.080   4.002  1.00 20.00     0.051 A 
HETATM    2  C2  UNL     1     -33.256   5.685   1.976  1.00 20.00     0.051 A 
HETATM    3  C3  UNL     1     -33.299   8.143   3.427  1.00 20.00    -0.013 A 
HETATM    4  C4  UNL     1     -32.690   6.764   1.424  1.00 20.00    -0.013 A 
HETATM    5  C5  UNL     1     -33.902   5.775   3.305  1.00 20.00     0.171 A 
HETATM    6  C6  UNL     1     -32.657   8.125   2.066  1.00 20.00     0.044 A 
HETATM    7  O8  UNL     1     -34.440   4.797   3.814  1.00 20.00    -0.289 OA
ENDROOT
BRANCH   6   8
HETATM    8  C7  UNL     1     -33.327   9.153   1.154  1.00 20.00     0.127 C 
HETATM    9 CL9  UNL     1     -32.255   9.559  -0.196  1.00 20.00    -0.130 Cl
ENDBRANCH   6   8
TORSDOF 1
