REMARK  0 active torsions:
REMARK  status: ('A' for Active; 'I' for Inactive)
ROOT
HETATM    1  C1  UNL     1     -32.744   8.291   2.373  1.00 20.00     0.028 C 
HETATM    2  C2  UNL     1     -33.421   7.686   3.576  1.00 20.00     0.028 C 
HETATM    3  C3  UNL     1     -32.266   7.061   1.633  1.00 20.00     0.167 C 
HETATM    4  C4  UNL     1     -34.060   6.448   2.984  1.00 20.00     0.167 C 
HETATM    5  O5  UNL     1     -33.211   6.018   1.911  1.00 20.00    -0.391 OA
ENDROOT
TORSDOF 0
