REMARK  3 active torsions:
REMARK  status: ('A' for Active; 'I' for Inactive)
REMARK    1  A    between atoms: C1_1  and  C7_7 
REMARK    2  A    between atoms: C1_1  and  O9_9 
REMARK    3  A    between atoms: C5_5  and  C7_7 
ROOT
HETATM    1  C2  UNL     1     -32.331   8.563   0.915  1.00 20.00     0.011 A 
HETATM    2  C3  UNL     1     -30.909   8.106   1.260  1.00 20.00     0.011 A 
HETATM    3  C4  UNL     1     -32.444   5.875   1.255  1.00 20.00     0.015 A 
HETATM    4  C5  UNL     1     -32.575   6.489   2.657  1.00 20.00     0.005 A 
HETATM    5  C6  UNL     1     -32.071   7.262   1.524  1.00 20.00    -0.036 A 
ENDROOT
BRANCH   4   6
HETATM    6  C7  UNL     1     -33.923   6.769   3.224  1.00 20.00     0.115 C 
BRANCH   6   7
HETATM    7  C1  UNL     1     -34.551   5.558   3.891  1.00 20.00     0.139 C 
HETATM    8  O8  UNL     1     -34.018   4.465   4.009  1.00 20.00    -0.650 OA
BRANCH   7   9
HETATM    9  O9  UNL     1     -35.797   5.843   4.348  1.00 20.00    -0.776 OA
HETATM   10  H19 UNL     1     -36.214   5.068   4.781  1.00 20.00     0.167 HD
ENDBRANCH   7   9
ENDBRANCH   6   7
ENDBRANCH   4   6
TORSDOF 3
