REMARK  0 active torsions:
REMARK  status: ('A' for Active; 'I' for Inactive)
ROOT
HETATM    1  C1  UNL     1     -34.651   6.552   3.387  1.00 20.00     0.260 C 
HETATM    2  C2  UNL     1     -33.691   5.517   2.860  1.00 20.00     0.137 C 
HETATM    3  C3  UNL     1     -33.209   5.859   1.460  1.00 20.00     0.177 C 
HETATM    4  C4  UNL     1     -32.777   8.135   3.358  1.00 20.00     0.205 C 
HETATM    5  C5  UNL     1     -32.402   8.065   1.888  1.00 20.00     0.194 C 
HETATM    6  O6  UNL     1     -35.817   6.274   3.658  1.00 20.00    -0.265 OA
HETATM    7  O7  UNL     1     -34.169   7.807   3.554  1.00 20.00    -0.319 OA
HETATM    8  O8  UNL     1     -32.084   6.732   1.494  1.00 20.00    -0.389 OA
ENDROOT
TORSDOF 0
