REMARK  0 active torsions:
REMARK  status: ('A' for Active; 'I' for Inactive)
ROOT
HETATM    1  C1  UNL     1     -33.019   6.047   2.179  1.00 20.00     0.201 C 
HETATM    2  C2  UNL     1     -32.755   8.191   3.445  1.00 20.00     0.099 C 
HETATM    3  C3  UNL     1     -32.694   7.531   2.065  1.00 20.00     0.074 C 
HETATM    4  C4  UNL     1     -31.323   7.739   1.431  1.00 20.00     0.020 C 
HETATM    5  O5  UNL     1     -32.688   5.196   1.365  1.00 20.00    -0.284 OA
HETATM    6  S6  UNL     1     -33.997   5.646   3.592  1.00 20.00    -0.019 SA
HETATM    7  S7  UNL     1     -34.254   7.571   4.223  1.00 20.00    -0.089 SA
ENDROOT
TORSDOF 0
