REMARK  0 active torsions:
REMARK  status: ('A' for Active; 'I' for Inactive)
ROOT
HETATM    1  C1  UNL     1     -33.140   5.858   1.714  1.00 20.00     0.127 C 
HETATM    2  C2  UNL     1     -32.265   7.087   1.592  1.00 20.00     0.078 C 
HETATM    3  C3  UNL     1     -33.074   5.083   3.012  1.00 20.00     0.078 C 
HETATM    4  C4  UNL     1     -32.788   8.290   2.374  1.00 20.00     0.007 C 
HETATM    5  C5  UNL     1     -34.328   5.257   3.857  1.00 20.00     0.007 C 
HETATM    6  C6  UNL     1     -32.718   8.122   3.895  1.00 20.00     0.000 C 
HETATM    7  C7  UNL     1     -34.910   6.669   3.932  1.00 20.00     0.000 C 
HETATM    8  C8  UNL     1     -34.032   7.736   4.583  1.00 20.00     0.000 C 
HETATM    9  O9  UNL     1     -33.895   5.517   0.804  1.00 20.00    -0.298 OA
ENDROOT
TORSDOF 0
