REMARK  0 active torsions:
REMARK  status: ('A' for Active; 'I' for Inactive)
ROOT
HETATM    1  C1  UNL     1     -34.119   5.264   3.892  1.00 20.00     0.020 C 
HETATM    2  C2  UNL     1     -32.798   5.163   3.131  1.00 20.00     0.075 C 
HETATM    3  C3  UNL     1     -34.666   6.669   4.142  1.00 20.00     0.075 C 
HETATM    4  C4  UNL     1     -32.539   7.916   2.859  1.00 20.00     0.147 C 
HETATM    5  S5  UNL     1     -32.646   6.422   1.835  1.00 20.00    -0.159 SA
HETATM    6  S6  UNL     1     -33.354   7.874   4.479  1.00 20.00    -0.159 SA
ENDROOT
TORSDOF 0
