REMARK  0 active torsions:
REMARK  status: ('A' for Active; 'I' for Inactive)
ROOT
HETATM    1  C1  UNL     1     -33.645   6.695   2.997  1.00 20.00     0.270 A 
HETATM    2  C2  UNL     1     -32.952   6.674   1.602  1.00 20.00     0.072 A 
HETATM    3  C3  UNL     1     -32.345   8.035   2.121  1.00 20.00     0.079 A 
HETATM    4  C4  UNL     1     -33.944   6.736   0.440  1.00 20.00     0.029 C 
HETATM    5  C5  UNL     1     -31.998   5.492   1.425  1.00 20.00     0.029 C 
HETATM    6  C6  UNL     1     -32.794   9.322   1.429  1.00 20.00     0.047 C 
HETATM    7  C7  UNL     1     -30.846   8.076   2.414  1.00 20.00     0.047 C 
HETATM    8  O8  UNL     1     -34.409   5.994   3.622  1.00 20.00    -0.264 OA
HETATM    9  O9  UNL     1     -33.083   7.873   3.374  1.00 20.00    -0.309 OA
ENDROOT
TORSDOF 0
