REMARK  0 active torsions:
REMARK  status: ('A' for Active; 'I' for Inactive)
ROOT
HETATM    1  C1  UNL     1     -32.643   8.613   2.159  1.00 20.00     0.016 C 
HETATM    2  C2  UNL     1     -33.121   7.766   3.336  1.00 20.00     0.016 C 
HETATM    3  C3  UNL     1     -31.617   7.763   1.417  1.00 20.00     0.140 C 
HETATM    4  C4  UNL     1     -33.472   6.399   2.758  1.00 20.00     0.140 C 
HETATM    5  O5  UNL     1     -31.213   5.238   2.049  1.00 20.00    -0.228 OA
HETATM    6  O6  UNL     1     -32.922   5.786   0.256  1.00 20.00    -0.228 OA
HETATM    7  S7  UNL     1     -32.244   6.092   1.498  1.00 20.00     0.144 S 
ENDROOT
TORSDOF 0
