REMARK  0 active torsions:
REMARK  status: ('A' for Active; 'I' for Inactive)
ROOT
HETATM    1  C1  UNL     1     -32.579   5.970   1.408  1.00 20.00     0.177 C 
HETATM    2  C2  UNL     1     -32.707   8.190   2.236  1.00 20.00     0.177 C 
HETATM    3  C3  UNL     1     -33.197   5.291   2.620  1.00 20.00     0.100 C 
HETATM    4  C4  UNL     1     -33.345   7.847   3.573  1.00 20.00     0.100 C 
HETATM    5  O5  UNL     1     -31.853   7.143   1.776  1.00 20.00    -0.390 OA
HETATM    6  S6  UNL     1     -34.411   6.386   3.411  1.00 20.00    -0.165 SA
ENDROOT
TORSDOF 0
