REMARK  2 active torsions:
REMARK  status: ('A' for Active; 'I' for Inactive)
REMARK    1  A    between atoms: C1_1  and  O10_10 
REMARK    2  A    between atoms: C8_8  and  O10_10 
ROOT
HETATM    1  C2  UNL     1     -31.677   7.583   1.410  1.00 20.00     0.005 C 
HETATM    2  C3  UNL     1     -31.821   8.037   2.871  1.00 20.00     0.007 C 
HETATM    3  C4  UNL     1     -33.970   8.039   1.852  1.00 20.00     0.012 C 
HETATM    4  C5  UNL     1     -33.335   5.744   1.802  1.00 20.00     0.037 C 
HETATM    5  C6  UNL     1     -33.087   7.073   1.064  1.00 20.00    -0.012 C 
HETATM    6  C7  UNL     1     -33.291   7.717   3.187  1.00 20.00     0.015 C 
HETATM    7  C8  UNL     1     -33.455   6.187   3.270  1.00 20.00     0.135 C 
ENDROOT
BRANCH   7   8
HETATM    8  O10 UNL     1     -34.743   5.851   3.767  1.00 20.00    -0.323 OA
BRANCH   8   9
HETATM    9  C1  UNL     1     -34.840   4.642   4.387  1.00 20.00     0.398 C 
HETATM   10  O9  UNL     1     -34.184   3.638   4.156  1.00 20.00    -0.276 OA
ENDBRANCH   8   9
ENDBRANCH   7   8
TORSDOF 2
