REMARK  2 active torsions:
REMARK  status: ('A' for Active; 'I' for Inactive)
REMARK    1  A    between atoms: C1_1  and  C3_3 
REMARK    2  A    between atoms: C3_3  and  O6_6 
ROOT
HETATM    1  C1  UNL     1     -34.437   6.714   3.280  1.00 20.00     0.156 C 
HETATM    2  C2  UNL     1     -34.762   5.628   3.986  1.00 20.00     0.273 C 
HETATM    3  F7  UNL     1     -35.904   5.628   4.707  1.00 20.00    -0.173 F 
HETATM    4  F8  UNL     1     -33.974   4.532   3.996  1.00 20.00    -0.173 F 
ENDROOT
BRANCH   1   5
HETATM    5  C3  UNL     1     -33.198   6.764   2.474  1.00 20.00     0.287 C 
HETATM    6  O5  UNL     1     -32.550   7.769   2.231  1.00 20.00    -0.260 OA
BRANCH   5   7
HETATM    7  O6  UNL     1     -32.925   5.496   2.065  1.00 20.00    -0.323 OA
HETATM    8  C4  UNL     1     -31.747   5.348   1.264  1.00 20.00     0.213 C 
ENDBRANCH   5   7
ENDBRANCH   1   5
TORSDOF 2
