REMARK  0 active torsions:
REMARK  status: ('A' for Active; 'I' for Inactive)
ROOT
HETATM    1  C1  UNL     1     -34.195   5.328   2.252  1.00 20.00     0.149 C 
HETATM    2  C2  UNL     1     -32.420   7.239   1.340  1.00 20.00     0.149 C 
HETATM    3  C3  UNL     1     -33.986   7.754   3.557  1.00 20.00     0.149 C 
HETATM    4  S4  UNL     1     -32.547   5.439   1.507  1.00 20.00    -0.149 SA
HETATM    5  S5  UNL     1     -34.261   6.003   3.932  1.00 20.00    -0.149 SA
HETATM    6  S6  UNL     1     -32.318   8.093   2.935  1.00 20.00    -0.149 SA
ENDROOT
TORSDOF 0
