REMARK  1 active torsions:
REMARK  status: ('A' for Active; 'I' for Inactive)
REMARK    1  A    between atoms: C3_3  and  C8_8 
ROOT
HETATM    1  C1  UNL     1     -32.965   8.415  -0.245  1.00 20.00    -0.026 C 
HETATM    2  C2  UNL     1     -32.352   7.293   0.159  1.00 20.00    -0.025 C 
HETATM    3  C4  UNL     1     -31.070   9.060   0.911  1.00 20.00     0.017 C 
HETATM    4  C5  UNL     1     -33.144   9.284   2.060  1.00 20.00     0.021 C 
HETATM    5  C6  UNL     1     -32.511   9.525   0.670  1.00 20.00     0.009 C 
HETATM    6  C7  UNL     1     -31.495   7.655   1.353  1.00 20.00     0.019 C 
HETATM    7  C8  UNL     1     -32.408   8.005   2.553  1.00 20.00     0.063 C 
ENDROOT
BRANCH   7   8
HETATM    8  C3  UNL     1     -33.343   6.898   2.932  1.00 20.00     0.128 C 
HETATM    9  C9  UNL     1     -34.305   7.181   4.054  1.00 20.00     0.091 C 
HETATM   10  O10 UNL     1     -33.328   5.813   2.353  1.00 20.00    -0.298 OA
ENDBRANCH   7   8
TORSDOF 1
