REMARK  2 active torsions:
REMARK  status: ('A' for Active; 'I' for Inactive)
REMARK    1  A    between atoms: C1_1  and  C2_2 
REMARK    2  A    between atoms: C1_1  and  C3_3 
ROOT
HETATM    1  C1  UNL     1     -32.709   6.465   2.289  1.00 20.00     0.374 C 
HETATM    2  O4  UNL     1     -33.242   5.907   1.216  1.00 20.00    -0.216 OA
ENDROOT
BRANCH   1   3
HETATM    3  C2  UNL     1     -33.849   6.851   3.240  1.00 20.00     0.424 C 
HETATM    4  F5  UNL     1     -33.378   7.597   4.268  1.00 20.00    -0.168 F 
HETATM    5  F6  UNL     1     -34.816   7.572   2.632  1.00 20.00    -0.168 F 
HETATM    6  F7  UNL     1     -34.430   5.757   3.786  1.00 20.00    -0.168 F 
ENDBRANCH   1   3
BRANCH   1   7
HETATM    7  C3  UNL     1     -31.944   7.718   1.843  1.00 20.00     0.424 C 
HETATM    8  F8  UNL     1     -30.846   7.396   1.119  1.00 20.00    -0.168 F 
HETATM    9  F9  UNL     1     -31.511   8.418   2.919  1.00 20.00    -0.168 F 
HETATM   10  F10 UNL     1     -32.699   8.554   1.098  1.00 20.00    -0.168 F 
ENDBRANCH   1   7
TORSDOF 2
