REMARK  0 active torsions:
REMARK  status: ('A' for Active; 'I' for Inactive)
ROOT
HETATM    1  C1  UNL     1     -32.495   5.922   1.330  1.00 20.00     0.008 C 
HETATM    2  C2  UNL     1     -32.691   4.848   2.271  1.00 20.00     0.028 C 
HETATM    3  C3  UNL     1     -33.008   7.845   2.809  1.00 20.00     0.034 C 
HETATM    4  C4  UNL     1     -32.629   7.240   1.546  1.00 20.00    -0.060 C 
HETATM    5  C5  UNL     1     -33.520   4.824   3.321  1.00 20.00     0.085 C 
HETATM    6  C6  UNL     1     -33.775   7.324   3.775  1.00 20.00     0.086 C 
HETATM    7  C7  UNL     1     -34.357   5.955   3.799  1.00 20.00     0.215 C 
HETATM    8  C8  UNL     1     -32.345   8.226   0.443  1.00 20.00     0.048 C 
HETATM    9  O9  UNL     1     -35.465   5.753   4.293  1.00 20.00    -0.285 OA
HETATM   10 CL10 UNL     1     -33.692   3.355   4.232  1.00 20.00    -0.080 Cl
HETATM   11 CL11 UNL     1     -34.186   8.307   5.148  1.00 20.00    -0.080 Cl
ENDROOT
TORSDOF 0
