REMARK  0 active torsions:
REMARK  status: ('A' for Active; 'I' for Inactive)
ROOT
HETATM    1  C1  UNL     1     -33.394   7.709   3.231  1.00 20.00     0.090 A 
HETATM    2  C2  UNL     1     -32.464   6.174   1.624  1.00 20.00     0.167 A 
HETATM    3  C3  UNL     1     -34.015   6.481   3.144  1.00 20.00     0.109 A 
HETATM    4  N4  UNL     1     -33.484   5.599   2.223  1.00 20.00    -0.246 NA
HETATM    5  S5  UNL     1     -32.089   7.773   2.120  1.00 20.00    -0.092 SA
HETATM    6 BR6  UNL     1     -35.509   5.994   4.203  1.00 20.00    -0.029 Br
ENDROOT
TORSDOF 0
