REMARK  0 active torsions:
REMARK  status: ('A' for Active; 'I' for Inactive)
ROOT
HETATM    1  C1  UNL     1     -32.883   7.326   2.497  1.00 20.00     0.142 C 
HETATM    2  C2  UNL     1     -34.607   5.333   3.931  1.00 20.00     0.002 C 
HETATM    3  C3  UNL     1     -34.896   6.832   3.941  1.00 20.00     0.016 C 
HETATM    4  C4  UNL     1     -33.368   4.931   3.134  1.00 20.00     0.016 C 
HETATM    5  C5  UNL     1     -33.662   7.729   3.760  1.00 20.00     0.014 C 
HETATM    6  C6  UNL     1     -33.005   5.881   1.983  1.00 20.00     0.014 C 
HETATM    7  C7  UNL     1     -34.145   9.184   3.601  1.00 20.00     0.023 C 
HETATM    8  C8  UNL     1     -32.723   7.657   4.972  1.00 20.00     0.023 C 
HETATM    9  C9  UNL     1     -31.644   5.443   1.409  1.00 20.00     0.023 C 
HETATM   10  C10 UNL     1     -34.047   5.836   0.857  1.00 20.00     0.023 C 
HETATM   11  O11 UNL     1     -32.174   8.146   1.906  1.00 20.00    -0.296 OA
ENDROOT
TORSDOF 0
