REMARK  0 active torsions:
REMARK  status: ('A' for Active; 'I' for Inactive)
ROOT
HETATM    1  C1  UNL     1     -32.660   7.499   2.275  1.00 20.00     0.056 C 
HETATM    2  C2  UNL     1     -34.198   6.524   3.526  1.00 20.00     0.264 C 
HETATM    3  C3  UNL     1     -31.719   8.408   1.994  1.00 20.00     0.047 C 
HETATM    4  C4  UNL     1     -33.659   5.442   2.640  1.00 20.00     0.127 C 
HETATM    5  C5  UNL     1     -32.894   6.198   1.565  1.00 20.00     0.010 C 
HETATM    6  C6  UNL     1     -31.617   5.443   1.179  1.00 20.00     0.022 C 
HETATM    7  C7  UNL     1     -33.768   6.420   0.321  1.00 20.00     0.022 C 
HETATM    8  O8  UNL     1     -35.081   6.362   4.356  1.00 20.00    -0.265 OA
HETATM    9  O9  UNL     1     -33.538   7.705   3.338  1.00 20.00    -0.283 OA
ENDROOT
TORSDOF 0
