REMARK  1 active torsions:
REMARK  status: ('A' for Active; 'I' for Inactive)
REMARK    1  A    between atoms: C4_4  and  C7_7 
ROOT
HETATM    1  C1  UNL     1     -33.207   5.448   2.345  1.00 20.00     0.015 A 
HETATM    2  C2  UNL     1     -32.382   5.966   1.348  1.00 20.00     0.008 A 
HETATM    3  C3  UNL     1     -33.562   7.674   3.205  1.00 20.00     0.022 A 
HETATM    4  C4  UNL     1     -33.795   6.301   3.275  1.00 20.00     0.002 A 
HETATM    5  C5  UNL     1     -32.132   7.345   1.273  1.00 20.00    -0.052 A 
HETATM    6  C6  UNL     1     -32.743   8.210   2.200  1.00 20.00    -0.051 A 
HETATM    7  C8  UNL     1     -31.261   7.871   0.159  1.00 20.00     0.039 C 
HETATM    8  C9  UNL     1     -32.488   9.696   2.177  1.00 20.00     0.039 C 
HETATM    9  C10 UNL     1     -30.765   9.295   0.403  1.00 20.00     0.005 C 
HETATM   10  C11 UNL     1     -31.913  10.190   0.851  1.00 20.00     0.005 C 
ENDROOT
BRANCH   4  11
HETATM   11  C7  UNL     1     -34.651   5.761   4.319  1.00 20.00     0.269 C 
HETATM   12  O12 UNL     1     -34.895   4.557   4.435  1.00 20.00    -0.301 OA
ENDBRANCH   4  11
TORSDOF 1
