REMARK  1 active torsions:
REMARK  status: ('A' for Active; 'I' for Inactive)
REMARK    1  A    between atoms: C8_8  and  O9_9 
ROOT
HETATM    1  C1  UNL     1     -34.565   7.627   4.746  1.00 20.00     0.010 C 
HETATM    2  C2  UNL     1     -34.151   5.514   3.754  1.00 20.00     0.012 C 
HETATM    3  C3  UNL     1     -35.398   7.309   2.549  1.00 20.00     0.012 C 
HETATM    4  C4  UNL     1     -35.262   6.570   3.892  1.00 20.00    -0.013 C 
HETATM    5  C5  UNL     1     -33.383   7.822   3.812  1.00 20.00    -0.001 C 
HETATM    6  C6  UNL     1     -32.929   6.383   3.399  1.00 20.00     0.019 C 
HETATM    7  C7  UNL     1     -33.991   7.912   2.373  1.00 20.00     0.019 C 
HETATM    8  C8  UNL     1     -32.871   6.922   1.943  1.00 20.00     0.127 C 
ENDROOT
BRANCH   8   9
HETATM    9  O9  UNL     1     -33.189   5.992   0.894  1.00 20.00    -0.395 OA
HETATM   10  H21 UNL     1     -33.105   6.487   0.068  1.00 20.00     0.210 HD
ENDBRANCH   8   9
TORSDOF 1
