REMARK  1 active torsions:
REMARK  status: ('A' for Active; 'I' for Inactive)
REMARK    1  A    between atoms: C7_7  and  C11_11 
ROOT
HETATM    1  C1  UNL     1     -32.390   8.118   2.647  1.00 20.00    -0.018 C 
HETATM    2  C2  UNL     1     -33.404   7.361   3.455  1.00 20.00     0.159 C 
HETATM    3  C3  UNL     1     -31.774   9.156   3.230  1.00 20.00     0.023 C 
HETATM    4  C4  UNL     1     -31.791   6.107   1.276  1.00 20.00     0.010 C 
HETATM    5  C5  UNL     1     -32.376   5.316   2.453  1.00 20.00     0.013 C 
HETATM    6  C6  UNL     1     -32.196   7.593   1.245  1.00 20.00     0.017 C 
HETATM    7  C7  UNL     1     -33.669   5.926   3.004  1.00 20.00     0.063 C 
HETATM    8  C8  UNL     1     -31.223   8.384   0.366  1.00 20.00     0.015 C 
HETATM    9  O12 UNL     1     -34.009   7.887   4.386  1.00 20.00    -0.292 OA
ENDROOT
BRANCH   7  10
HETATM   10  C11 UNL     1     -34.207   5.083   4.158  1.00 20.00    -0.011 C 
HETATM   11  C9  UNL     1     -35.692   5.365   4.381  1.00 20.00     0.010 C 
HETATM   12  C10 UNL     1     -33.977   3.598   3.891  1.00 20.00     0.010 C 
ENDBRANCH   7  10
TORSDOF 1
