REMARK  0 active torsions:
REMARK  status: ('A' for Active; 'I' for Inactive)
ROOT
HETATM    1  C1  UNL     1     -33.048   6.505   0.726  1.00 20.00    -0.024 C 
HETATM    2  C2  UNL     1     -32.840   7.740   1.202  1.00 20.00    -0.024 C 
HETATM    3  C3  UNL     1     -34.582   6.477   3.355  1.00 20.00     0.164 C 
HETATM    4  C4  UNL     1     -31.764   6.274   2.648  1.00 20.00     0.021 C 
HETATM    5  C5  UNL     1     -32.778   5.491   1.810  1.00 20.00     0.034 C 
HETATM    6  C6  UNL     1     -32.412   7.661   2.647  1.00 20.00     0.034 C 
HETATM    7  C7  UNL     1     -34.062   5.239   2.614  1.00 20.00     0.161 C 
HETATM    8  C8  UNL     1     -33.650   7.680   3.554  1.00 20.00     0.161 C 
HETATM    9  O9  UNL     1     -35.717   6.482   3.841  1.00 20.00    -0.295 OA
HETATM   10 CL10 UNL     1     -33.803   3.979   3.851  1.00 20.00    -0.116 Cl
HETATM   11 CL11 UNL     1     -33.180   7.676   5.276  1.00 20.00    -0.116 Cl
ENDROOT
TORSDOF 0
