REMARK  1 active torsions:
REMARK  status: ('A' for Active; 'I' for Inactive)
REMARK    1  A    between atoms: C5_5  and  C6_6 
ROOT
HETATM    1  C1  UNL     1     -34.645   5.414   4.034  1.00 20.00     0.061 C 
HETATM    2  C6  UNL     1     -34.328   6.765   3.582  1.00 20.00     0.155 C 
HETATM    3  N7  UNL     1     -34.919   4.347   4.400  1.00 20.00    -0.197 NA
ENDROOT
BRANCH   2   4
HETATM    4  C5  UNL     1     -32.919   6.663   3.032  1.00 20.00     0.134 C 
HETATM    5  C3  UNL     1     -32.805   5.753   1.821  1.00 20.00     0.035 C 
HETATM    6  C2  UNL     1     -31.589   6.320   1.132  1.00 20.00     0.029 C 
HETATM    7  C4  UNL     1     -31.764   7.806   1.361  1.00 20.00     0.168 C 
HETATM    8  O8  UNL     1     -32.467   7.959   2.603  1.00 20.00    -0.385 OA
ENDBRANCH   2   4
TORSDOF 1
