REMARK  1 active torsions:
REMARK  status: ('A' for Active; 'I' for Inactive)
REMARK    1  A    between atoms: C2_2  and  O3_3 
ROOT
HETATM    1  C2  UNL     1     -33.406   6.373   2.162  1.00 20.00     0.314 C 
HETATM    2 CL4  UNL     1     -32.617   7.958   2.331  1.00 20.00    -0.078 Cl
HETATM    3 CL5  UNL     1     -32.197   5.145   1.736  1.00 20.00    -0.078 Cl
ENDROOT
BRANCH   1   4
HETATM    4  O3  UNL     1     -34.019   6.043   3.403  1.00 20.00    -0.362 OA
HETATM    5  C1  UNL     1     -35.251   6.723   3.602  1.00 20.00     0.204 C 
ENDBRANCH   1   4
TORSDOF 1
