REMARK  1 active torsions:
REMARK  status: ('A' for Active; 'I' for Inactive)
REMARK    1  A    between atoms: C1_1  and  C3_3 
ROOT
HETATM    1  C2  UNL     1     -34.207   8.009   2.341  1.00 20.00     0.065 A 
HETATM    2  C3  UNL     1     -33.660   6.646   2.715  1.00 20.00     0.070 A 
HETATM    3  C4  UNL     1     -32.923   7.923   3.120  1.00 20.00     0.130 A 
HETATM    4  C5  UNL     1     -33.120   5.797   1.588  1.00 20.00     0.028 C 
HETATM    5 CL8  UNL     1     -32.960   8.467   4.801  1.00 20.00    -0.100 Cl
HETATM    6 CL9  UNL     1     -31.431   8.389   2.302  1.00 20.00    -0.100 Cl
ENDROOT
BRANCH   2   7
HETATM    7  C1  UNL     1     -34.385   5.902   3.775  1.00 20.00     0.230 C 
HETATM    8  O6  UNL     1     -35.380   6.366   4.324  1.00 20.00    -0.279 OA
HETATM    9 CL7  UNL     1     -33.657   4.359   4.106  1.00 20.00    -0.043 Cl
ENDBRANCH   2   7
TORSDOF 1
