REMARK  3 active torsions:
REMARK  status: ('A' for Active; 'I' for Inactive)
REMARK    1  A    between atoms: C4_4  and  C5_5 
REMARK    2  A    between atoms: C5_5  and  C6_6 
REMARK    3  A    between atoms: C6_6  and  N7_7 
ROOT
HETATM    1  C1  UNL     1     -34.203   6.489   3.755  1.00 20.00     0.158 C 
HETATM    2  N7  UNL     1     -33.121   6.914   3.591  1.00 20.00    -0.271 NA
HETATM    3  S8  UNL     1     -35.664   5.908   4.010  1.00 20.00    -0.055 SA
ENDROOT
BRANCH   2   4
HETATM    4  C6  UNL     1     -32.801   7.260   2.202  1.00 20.00     0.105 C 
HETATM    5  C3  UNL     1     -32.241   6.014   1.526  1.00 20.00     0.034 C 
BRANCH   4   6
HETATM    6  C5  UNL     1     -31.783   8.405   2.185  1.00 20.00     0.026 C 
BRANCH   6   7
HETATM    7  C4  UNL     1     -31.398   8.822   0.763  1.00 20.00    -0.002 C 
HETATM    8  C2  UNL     1     -32.614   9.270  -0.033  1.00 20.00     0.005 C 
ENDBRANCH   6   7
ENDBRANCH   4   6
ENDBRANCH   2   4
TORSDOF 3
