REMARK  3 active torsions:
REMARK  status: ('A' for Active; 'I' for Inactive)
REMARK    1  A    between atoms: C7_7  and  C8_8 
REMARK    2  A    between atoms: C7_7  and  N9_9 
REMARK    3  A    between atoms: C8_8  and  N10_10 
ROOT
HETATM    1  C1  UNL     1     -32.140   8.826   0.550  1.00 20.00     0.157 C 
HETATM    2  N9  UNL     1     -31.827   8.103   1.421  1.00 20.00    -0.274 NA
HETATM    3  S11 UNL     1     -32.569   9.827  -0.612  1.00 20.00    -0.055 SA
ENDROOT
BRANCH   2   4
HETATM    4  C7  UNL     1     -31.480   6.744   0.999  1.00 20.00     0.178 C 
BRANCH   4   5
HETATM    5  C8  UNL     1     -32.720   5.871   1.012  1.00 20.00     0.256 C 
BRANCH   5   6
HETATM    6  N10 UNL     1     -33.314   5.856   2.394  1.00 20.00    -0.070 N 
HETATM    7  C5  UNL     1     -34.171   7.074   2.646  1.00 20.00     0.235 C 
HETATM    8  C3  UNL     1     -34.644   7.069   4.093  1.00 20.00     0.028 C 
HETATM    9  C2  UNL     1     -35.377   5.779   4.442  1.00 20.00     0.003 C 
HETATM   10  C4  UNL     1     -34.529   4.555   4.113  1.00 20.00     0.028 C 
HETATM   11  C6  UNL     1     -34.056   4.569   2.667  1.00 20.00     0.235 C 
HETATM   12  H26 UNL     1     -32.523   5.897   3.051  1.00 20.00     0.279 HD
ENDBRANCH   5   6
ENDBRANCH   4   5
ENDBRANCH   2   4
TORSDOF 3
