REMARK  1 active torsions:
REMARK  status: ('A' for Active; 'I' for Inactive)
REMARK    1  A    between atoms: C3_3  and  C6_6 
ROOT
HETATM    1  C1  UNL     1     -34.778   5.444   3.722  1.00 20.00     0.272 C 
HETATM    2  C2  UNL     1     -32.549   4.925   3.225  1.00 20.00     0.055 C 
HETATM    3  C3  UNL     1     -33.683   5.815   2.753  1.00 20.00     0.195 C 
HETATM    4  C4  UNL     1     -33.294   3.700   3.708  1.00 20.00     0.129 C 
HETATM    5  C5  UNL     1     -32.533   2.910   4.755  1.00 20.00     0.040 C 
HETATM    6  O7  UNL     1     -35.776   6.105   3.967  1.00 20.00    -0.265 OA
HETATM    7  O8  UNL     1     -34.504   4.222   4.277  1.00 20.00    -0.316 OA
ENDROOT
BRANCH   3   8
HETATM    8  C6  UNL     1     -33.331   7.289   2.797  1.00 20.00     0.400 C 
HETATM    9  F9  UNL     1     -34.398   8.038   2.465  1.00 20.00    -0.170 F 
HETATM   10  F10 UNL     1     -32.932   7.640   4.033  1.00 20.00    -0.170 F 
HETATM   11  F11 UNL     1     -32.335   7.561   1.934  1.00 20.00    -0.170 F 
ENDBRANCH   3   8
TORSDOF 1
