REMARK  0 active torsions:
REMARK  status: ('A' for Active; 'I' for Inactive)
ROOT
HETATM    1  C1  UNL     1     -33.424   9.207   3.032  1.00 20.00     0.009 A 
HETATM    2  C2  UNL     1     -32.996   9.975   1.948  1.00 20.00     0.019 A 
HETATM    3  C3  UNL     1     -32.370   7.963   0.767  1.00 20.00     0.034 A 
HETATM    4  C4  UNL     1     -32.799   7.192   1.855  1.00 20.00     0.017 A 
HETATM    5  C5  UNL     1     -33.342   7.808   2.992  1.00 20.00    -0.044 A 
HETATM    6  C6  UNL     1     -32.473   9.353   0.817  1.00 20.00     0.011 A 
HETATM    7  C7  UNL     1     -32.663   5.713   1.799  1.00 20.00     0.160 C 
HETATM    8  C8  UNL     1     -33.791   7.005   4.183  1.00 20.00     0.040 C 
HETATM    9  C9  UNL     1     -33.107   4.909   3.001  1.00 20.00     0.084 C 
HETATM   10  C10 UNL     1     -34.219   5.604   3.769  1.00 20.00     0.012 C 
HETATM   11  O11 UNL     1     -32.153   5.171   0.823  1.00 20.00    -0.292 OA
HETATM   12 BR12 UNL     1     -31.892  10.396  -0.649  1.00 20.00    -0.051 Br
ENDROOT
TORSDOF 0
