REMARK  2 active torsions:
REMARK  status: ('A' for Active; 'I' for Inactive)
REMARK    1  A    between atoms: C1_1  and  C3_3 
REMARK    2  A    between atoms: C2_2  and  C8_8 
ROOT
HETATM    1  C1  UNL     1     -33.222   8.422   1.857  1.00 20.00     0.052 C 
HETATM    2  C2  UNL     1     -33.603   7.235   2.369  1.00 20.00    -0.077 C 
HETATM    3  C4  UNL     1     -33.167   5.897   1.832  1.00 20.00     0.044 C 
ENDROOT
BRANCH   2   4
HETATM    4  C8  UNL     1     -34.529   7.220   3.585  1.00 20.00     0.006 C 
HETATM    5  C6  UNL     1     -34.917   5.798   3.997  1.00 20.00     0.014 C 
HETATM    6  C7  UNL     1     -33.933   7.986   4.768  1.00 20.00     0.014 C 
ENDBRANCH   2   4
BRANCH   1   7
HETATM    7  C3  UNL     1     -32.317   8.607   0.687  1.00 20.00     0.145 C 
HETATM    8  C5  UNL     1     -32.542   9.842  -0.144  1.00 20.00     0.096 C 
HETATM    9  O9  UNL     1     -31.462   7.781   0.381  1.00 20.00    -0.294 OA
ENDBRANCH   1   7
TORSDOF 2
