REMARK  0 active torsions:
REMARK  status: ('A' for Active; 'I' for Inactive)
ROOT
HETATM    1  C1  UNL     1     -33.164   7.775   3.048  1.00 20.00     0.086 C 
HETATM    2  C2  UNL     1     -32.159   7.528   2.018  1.00 20.00     0.235 C 
HETATM    3  N3  UNL     1     -33.960   7.972   3.869  1.00 20.00    -0.195 NA
HETATM    4 BR4  UNL     1     -32.354   8.800   0.556  1.00 20.00    -0.063 Br
HETATM    5 BR5  UNL     1     -32.264   5.686   1.392  1.00 20.00    -0.063 Br
ENDROOT
TORSDOF 0
