REMARK  1 active torsions:
REMARK  status: ('A' for Active; 'I' for Inactive)
REMARK    1  A    between atoms: C1_1  and  C2_2 
ROOT
HETATM    1  C2  UNL     1     -34.080   6.778   3.307  1.00 20.00     0.395 C 
HETATM    2  F4  UNL     1     -33.797   7.596   4.354  1.00 20.00    -0.178 F 
HETATM    3  F5  UNL     1     -34.072   5.511   3.800  1.00 20.00    -0.178 F 
HETATM    4 CL7  UNL     1     -35.695   7.148   2.682  1.00 20.00    -0.038 Cl
ENDROOT
BRANCH   1   5
HETATM    5  C1  UNL     1     -33.102   6.922   2.171  1.00 20.00     0.307 C 
HETATM    6  O3  UNL     1     -32.535   7.989   1.951  1.00 20.00    -0.272 OA
HETATM    7 CL6  UNL     1     -32.858   5.445   1.285  1.00 20.00    -0.036 Cl
ENDBRANCH   1   5
TORSDOF 1
