REMARK  1 active torsions:
REMARK  status: ('A' for Active; 'I' for Inactive)
REMARK    1  A    between atoms: C5_5  and  C8_8 
ROOT
HETATM    1  C1  UNL     1     -31.755   6.766   1.327  1.00 20.00     0.010 C 
HETATM    2  C2  UNL     1     -33.010   5.891   1.320  1.00 20.00     0.035 C 
HETATM    3  C3  UNL     1     -32.643   8.334   3.109  1.00 20.00     0.041 C 
HETATM    4  C5  UNL     1     -32.041   8.231   1.699  1.00 20.00     0.019 C 
HETATM    5  C6  UNL     1     -33.896   6.115   2.500  1.00 20.00     0.151 A 
HETATM    6  C7  UNL     1     -33.738   7.343   3.355  1.00 20.00     0.151 A 
HETATM    7  O10 UNL     1     -33.254   6.051   3.774  1.00 20.00    -0.375 OA
ENDROOT
BRANCH   4   8
HETATM    8  C8  UNL     1     -32.902   8.923   0.670  1.00 20.00     0.149 A 
HETATM    9  C4  UNL     1     -32.289   9.505  -0.558  1.00 20.00     0.200 A 
HETATM   10  O9  UNL     1     -32.657  10.319   0.567  1.00 20.00    -0.381 OA
ENDBRANCH   4   8
TORSDOF 1
