REMARK  1 active torsions:
REMARK  status: ('A' for Active; 'I' for Inactive)
REMARK    1  A    between atoms: C1_1  and  C6_6 
ROOT
HETATM    1  C2  UNL     1     -32.058   8.708  -0.075  1.00 20.00     0.005 C 
HETATM    2  C3  UNL     1     -32.787   9.771   0.763  1.00 20.00     0.006 C 
HETATM    3  C4  UNL     1     -32.811   6.909   1.503  1.00 20.00     0.017 C 
HETATM    4  C5  UNL     1     -31.274   8.600   2.168  1.00 20.00     0.010 C 
HETATM    5  C6  UNL     1     -33.588   7.972   2.298  1.00 20.00     0.059 C 
HETATM    6  C7  UNL     1     -31.591   7.692   0.983  1.00 20.00    -0.013 C 
HETATM    7  C8  UNL     1     -32.678   9.214   2.193  1.00 20.00    -0.003 C 
ENDROOT
BRANCH   5   8
HETATM    8  C1  UNL     1     -33.795   7.554   3.721  1.00 20.00     0.127 C 
HETATM    9  C9  UNL     1     -34.606   6.307   3.949  1.00 20.00     0.091 C 
HETATM   10  O10 UNL     1     -33.323   8.197   4.658  1.00 20.00    -0.298 OA
ENDBRANCH   5   8
TORSDOF 1
