REMARK  2 active torsions:
REMARK  status: ('A' for Active; 'I' for Inactive)
REMARK    1  A    between atoms: C3_3  and  C7_7 
REMARK    2  A    between atoms: C4_4  and  C8_8 
ROOT
HETATM    1  C5  UNL     1     -35.537   6.262   4.081  1.00 20.00     0.014 C 
HETATM    2  C6  UNL     1     -35.102   4.924   4.678  1.00 20.00     0.037 C 
HETATM    3  C7  UNL     1     -34.351   7.038   3.492  1.00 20.00     0.036 C 
HETATM    4  C8  UNL     1     -34.256   4.137   3.676  1.00 20.00     0.144 C 
HETATM    5  C9  UNL     1     -33.542   6.115   2.557  1.00 20.00     0.126 C 
HETATM    6  C10 UNL     1     -32.290   6.772   1.984  1.00 20.00     0.040 C 
HETATM    7  O11 UNL     1     -33.142   4.919   3.239  1.00 20.00    -0.377 OA
ENDROOT
BRANCH   3   8
HETATM    8  C3  UNL     1     -33.526   7.639   4.595  1.00 20.00    -0.030 C 
HETATM    9  C1  UNL     1     -33.345   8.953   4.763  1.00 20.00     0.007 C 
ENDBRANCH   3   8
BRANCH   4  10
HETATM   10  C4  UNL     1     -33.729   2.884   4.293  1.00 20.00    -0.005 C 
HETATM   11  C2  UNL     1     -32.569   2.806   4.955  1.00 20.00     0.009 C 
ENDBRANCH   4  10
TORSDOF 2
