REMARK  0 active torsions:
REMARK  status: ('A' for Active; 'I' for Inactive)
ROOT
HETATM    1  C1  UNL     1     -32.422   8.954   0.901  1.00 20.00     0.025 C 
HETATM    2  C2  UNL     1     -33.619   8.118   1.232  1.00 20.00     0.081 C 
HETATM    3  C3  UNL     1     -32.998   7.188   2.271  1.00 20.00     0.029 C 
HETATM    4  C4  UNL     1     -32.424   9.876  -0.271  1.00 20.00     0.067 C 
HETATM    5  C5  UNL     1     -33.905   6.989   3.483  1.00 20.00     0.034 C 
HETATM    6  C6  UNL     1     -32.606   5.838   1.661  1.00 20.00     0.034 C 
HETATM    7  N7  UNL     1     -31.412   8.826   1.701  1.00 20.00    -0.210 NA
HETATM    8  N8  UNL     1     -31.802   7.948   2.655  1.00 20.00    -0.208 NA
HETATM    9  H20 UNL     1     -31.946   8.453   3.528  1.00 20.00     0.149 HD
ENDROOT
TORSDOF 0
