REMARK  1 active torsions:
REMARK  status: ('A' for Active; 'I' for Inactive)
REMARK    1  A    between atoms: C1_1  and  C5_5 
ROOT
HETATM    1  C2  UNL     1     -32.646   9.462   2.465  1.00 20.00     0.006 C 
HETATM    2  C3  UNL     1     -32.406   9.102   0.993  1.00 20.00     0.006 C 
HETATM    3  C4  UNL     1     -30.663   8.178   2.274  1.00 20.00     0.011 C 
HETATM    4  C5  UNL     1     -32.509   6.998   3.168  1.00 20.00     0.067 C 
HETATM    5  C6  UNL     1     -31.842   8.392   3.228  1.00 20.00    -0.002 C 
HETATM    6  C7  UNL     1     -31.572   7.813   1.090  1.00 20.00    -0.006 C 
HETATM    7  C8  UNL     1     -32.416   6.620   1.657  1.00 20.00    -0.033 C 
HETATM    8  C10 UNL     1     -31.639   5.297   1.490  1.00 20.00     0.016 C 
HETATM    9  C11 UNL     1     -33.766   6.447   0.943  1.00 20.00     0.016 C 
ENDROOT
BRANCH   4  10
HETATM   10  C1  UNL     1     -33.873   6.979   3.789  1.00 20.00     0.128 C 
HETATM   11  C9  UNL     1     -34.134   7.980   4.881  1.00 20.00     0.091 C 
HETATM   12  O12 UNL     1     -34.738   6.185   3.421  1.00 20.00    -0.298 OA
ENDBRANCH   4  10
TORSDOF 1
