REMARK  1 active torsions:
REMARK  status: ('A' for Active; 'I' for Inactive)
REMARK    1  A    between atoms: C3_3  and  C7_7 
ROOT
HETATM    1  C1  UNL     1     -33.808   5.775   2.245  1.00 20.00    -0.019 C 
HETATM    2  C2  UNL     1     -34.238   6.209   3.442  1.00 20.00    -0.087 C 
HETATM    3  C4  UNL     1     -33.803   7.533   4.014  1.00 20.00     0.034 C 
HETATM    4  C5  UNL     1     -33.165   8.457   2.977  1.00 20.00     0.016 C 
HETATM    5  C6  UNL     1     -32.830   6.524   1.371  1.00 20.00     0.015 C 
HETATM    6  C7  UNL     1     -32.157   7.700   2.111  1.00 20.00     0.054 C 
HETATM    7  C8  UNL     1     -35.181   5.403   4.286  1.00 20.00     0.043 C 
HETATM    8  C9  UNL     1     -31.771   5.557   0.830  1.00 20.00     0.015 C 
ENDROOT
BRANCH   6   9
HETATM    9  C3  UNL     1     -31.556   8.665   1.132  1.00 20.00     0.236 C 
HETATM   10  O10 UNL     1     -32.208   9.252   0.274  1.00 20.00    -0.306 OA
ENDBRANCH   6   9
TORSDOF 1
