REMARK  1 active torsions:
REMARK  status: ('A' for Active; 'I' for Inactive)
REMARK    1  A    between atoms: C3_3  and  C6_6 
ROOT
HETATM    1  C1  UNL     1     -35.056   4.928   4.383  1.00 20.00    -0.024 C 
HETATM    2  C2  UNL     1     -33.850   4.496   3.978  1.00 20.00    -0.087 C 
HETATM    3  C4  UNL     1     -35.516   6.348   4.253  1.00 20.00     0.032 C 
HETATM    4  C5  UNL     1     -32.852   5.415   3.323  1.00 20.00     0.045 C 
HETATM    5  C6  UNL     1     -33.437   6.768   2.885  1.00 20.00     0.055 C 
HETATM    6  C7  UNL     1     -34.379   7.344   3.956  1.00 20.00    -0.004 C 
HETATM    7  C8  UNL     1     -33.419   3.070   4.156  1.00 20.00     0.043 C 
HETATM    8  C9  UNL     1     -34.975   8.694   3.545  1.00 20.00     0.011 C 
ENDROOT
BRANCH   5   9
HETATM    9  C3  UNL     1     -32.291   7.696   2.608  1.00 20.00     0.236 C 
HETATM   10  O10 UNL     1     -32.065   8.183   1.505  1.00 20.00    -0.306 OA
ENDBRANCH   5   9
TORSDOF 1
