REMARK  2 active torsions:
REMARK  status: ('A' for Active; 'I' for Inactive)
REMARK    1  A    between atoms: C1_1  and  O5_5 
REMARK    2  A    between atoms: C3_3  and  O5_5 
ROOT
HETATM    1  O5  UNL     1     -33.913   7.999   2.736  1.00 20.00    -0.288 OA
ENDROOT
BRANCH   1   2
HETATM    2  C1  UNL     1     -34.172   7.566   4.011  1.00 20.00     0.359 C 
HETATM    3  O4  UNL     1     -33.533   7.933   4.992  1.00 20.00    -0.245 OA
HETATM    4 CL6  UNL     1     -35.504   6.442   4.070  1.00 20.00    -0.012 Cl
ENDBRANCH   1   2
BRANCH   1   5
HETATM    5  C3  UNL     1     -32.610   7.733   2.190  1.00 20.00     0.224 C 
HETATM    6  C2  UNL     1     -32.367   8.605   0.969  1.00 20.00     0.057 C 
HETATM    7 CL7  UNL     1     -32.558   6.013   1.717  1.00 20.00    -0.095 Cl
ENDBRANCH   1   5
TORSDOF 2
