REMARK  1 active torsions:
REMARK  status: ('A' for Active; 'I' for Inactive)
REMARK    1  A    between atoms: C2_2  and  C5_5 
ROOT
HETATM    1  C3  UNL     1     -33.396   5.882   1.547  1.00 20.00     0.039 C 
HETATM    2  C4  UNL     1     -33.923   4.793   2.451  1.00 20.00     0.040 C 
HETATM    3  C5  UNL     1     -32.653   6.770   2.532  1.00 20.00     0.151 C 
HETATM    4  C6  UNL     1     -34.268   5.558   3.728  1.00 20.00     0.054 C 
HETATM    5  C9  UNL     1     -34.073   4.702   4.976  1.00 20.00     0.045 C 
HETATM    6  C10 UNL     1     -35.689   6.125   3.693  1.00 20.00     0.045 C 
HETATM    7  O11 UNL     1     -33.352   6.671   3.785  1.00 20.00    -0.371 OA
ENDROOT
BRANCH   3   8
HETATM    8  C2  UNL     1     -32.580   8.197   2.117  1.00 20.00    -0.059 C 
HETATM    9  C1  UNL     1     -32.484   8.541   0.819  1.00 20.00    -0.026 C 
HETATM   10  C7  UNL     1     -32.403   9.900   0.249  1.00 20.00     0.036 C 
HETATM   11  C8  UNL     1     -32.621   9.190   3.244  1.00 20.00     0.046 C 
ENDBRANCH   3   8
TORSDOF 1
