REMARK  1 active torsions:
REMARK  status: ('A' for Active; 'I' for Inactive)
REMARK    1  A    between atoms: C3_3  and  C7_7 
ROOT
HETATM    1  C1  UNL     1     -34.110   7.229   3.952  1.00 20.00    -0.019 C 
HETATM    2  C2  UNL     1     -34.366   5.963   3.578  1.00 20.00    -0.087 C 
HETATM    3  C4  UNL     1     -33.737   5.350   2.354  1.00 20.00     0.034 C 
HETATM    4  C5  UNL     1     -33.120   6.385   1.414  1.00 20.00     0.016 C 
HETATM    5  C6  UNL     1     -33.152   8.150   3.234  1.00 20.00     0.015 C 
HETATM    6  C7  UNL     1     -32.291   7.410   2.188  1.00 20.00     0.054 C 
HETATM    7  C8  UNL     1     -35.298   5.080   4.354  1.00 20.00     0.043 C 
HETATM    8  C9  UNL     1     -32.260   8.867   4.255  1.00 20.00     0.015 C 
ENDROOT
BRANCH   6   9
HETATM    9  C3  UNL     1     -31.703   8.391   1.217  1.00 20.00     0.236 C 
HETATM   10  O10 UNL     1     -32.380   9.127   0.507  1.00 20.00    -0.306 OA
ENDBRANCH   6   9
TORSDOF 1
