REMARK  2 active torsions:
REMARK  status: ('A' for Active; 'I' for Inactive)
REMARK    1  A    between atoms: C6_6  and  C8_8 
REMARK    2  A    between atoms: C8_8  and  O9_9 
ROOT
HETATM    1  C1  UNL     1     -31.534   7.026   1.662  1.00 20.00    -0.030 C 
HETATM    2  C2  UNL     1     -32.213   5.877   1.545  1.00 20.00    -0.030 C 
HETATM    3  C3  UNL     1     -32.021   8.188   2.477  1.00 20.00     0.031 C 
HETATM    4  C4  UNL     1     -33.518   5.619   2.238  1.00 20.00     0.034 C 
HETATM    5  C5  UNL     1     -33.514   8.099   2.863  1.00 20.00    -0.009 C 
HETATM    6  C6  UNL     1     -33.842   6.659   3.327  1.00 20.00     0.016 C 
HETATM    7  C7  UNL     1     -34.402   8.590   1.712  1.00 20.00     0.011 C 
ENDROOT
BRANCH   6   8
HETATM    8  C8  UNL     1     -35.282   6.498   3.815  1.00 20.00     0.169 C 
BRANCH   8   9
HETATM    9  O9  UNL     1     -35.433   5.192   4.339  1.00 20.00    -0.400 OA
HETATM   10  H23 UNL     1     -36.353   5.110   4.643  1.00 20.00     0.209 HD
ENDBRANCH   8   9
ENDBRANCH   6   8
TORSDOF 2
