REMARK  2 active torsions:
REMARK  status: ('A' for Active; 'I' for Inactive)
REMARK    1  A    between atoms: C1_1  and  S6_6 
REMARK    2  A    between atoms: N4_4  and  O5_5 
ROOT
HETATM    1  C1  UNL     1     -32.759   6.580   2.088  1.00 20.00     0.093 C 
HETATM    2  C2  UNL     1     -31.900   5.911   1.044  1.00 20.00     0.081 C 
HETATM    3  N4  UNL     1     -33.770   6.026   2.678  1.00 20.00    -0.134 NA
ENDROOT
BRANCH   1   4
HETATM    4  S6  UNL     1     -32.281   8.229   2.485  1.00 20.00    -0.117 SA
HETATM    5  C3  UNL     1     -32.440   9.055   0.887  1.00 20.00     0.097 C 
ENDBRANCH   1   4
BRANCH   3   6
HETATM    6  O5  UNL     1     -34.358   6.902   3.593  1.00 20.00    -0.266 OA
HETATM    7  H13 UNL     1     -35.083   6.359   3.946  1.00 20.00     0.247 HD
ENDBRANCH   3   6
TORSDOF 2
