REMARK  2 active torsions:
REMARK  status: ('A' for Active; 'I' for Inactive)
REMARK    1  A    between atoms: C1_1  and  C10_10 
REMARK    2  A    between atoms: C8_8  and  C10_10 
ROOT
HETATM    1  C2  UNL     1     -32.263   9.330   0.385  1.00 20.00     0.005 C 
HETATM    2  C3  UNL     1     -32.879   9.430   1.789  1.00 20.00     0.005 C 
HETATM    3  C4  UNL     1     -31.152   7.804   1.836  1.00 20.00     0.009 C 
HETATM    4  C5  UNL     1     -32.731   6.866   0.323  1.00 20.00     0.010 C 
HETATM    5  C6  UNL     1     -31.621   7.932   0.388  1.00 20.00    -0.014 C 
HETATM    6  C7  UNL     1     -32.548   8.059   2.409  1.00 20.00    -0.010 C 
HETATM    7  C8  UNL     1     -33.411   6.986   1.703  1.00 20.00    -0.003 C 
ENDROOT
BRANCH   7   8
HETATM    8  C10 UNL     1     -33.435   5.659   2.453  1.00 20.00     0.082 C 
BRANCH   8   9
HETATM    9  C1  UNL     1     -34.453   5.648   3.576  1.00 20.00     0.123 C 
HETATM   10  C9  UNL     1     -34.556   4.364   4.357  1.00 20.00     0.091 C 
HETATM   11  O11 UNL     1     -35.161   6.615   3.849  1.00 20.00    -0.298 OA
ENDBRANCH   8   9
ENDBRANCH   7   8
TORSDOF 2
