REMARK  3 active torsions:
REMARK  status: ('A' for Active; 'I' for Inactive)
REMARK    1  A    between atoms: C3_3  and  C8_8 
REMARK    2  A    between atoms: C4_4  and  C10_10 
REMARK    3  A    between atoms: C10_10  and  O11_11 
ROOT
HETATM    1  C1  UNL     1     -34.711   5.285   3.691  1.00 20.00    -0.031 C 
HETATM    2  C2  UNL     1     -34.897   6.535   4.137  1.00 20.00    -0.030 C 
HETATM    3  C5  UNL     1     -33.711   4.933   2.629  1.00 20.00     0.027 C 
HETATM    4  C6  UNL     1     -34.100   7.710   3.647  1.00 20.00     0.035 C 
HETATM    5  C7  UNL     1     -33.176   6.157   1.881  1.00 20.00     0.012 C 
HETATM    6  C8  UNL     1     -32.863   7.295   2.848  1.00 20.00     0.011 C 
ENDROOT
BRANCH   6   7
HETATM    7  C3  UNL     1     -32.413   8.490   2.030  1.00 20.00    -0.023 C 
HETATM    8  C4  UNL     1     -33.172   9.088   1.101  1.00 20.00     0.000 C 
BRANCH   8   9
HETATM    9  C10 UNL     1     -32.723  10.271   0.295  1.00 20.00     0.136 C 
HETATM   10  C9  UNL     1     -32.787   9.977  -1.199  1.00 20.00     0.043 C 
BRANCH   9  11
HETATM   11  O11 UNL     1     -33.589  11.362   0.594  1.00 20.00    -0.392 OA
HETATM   12  H27 UNL     1     -33.280  12.113   0.063  1.00 20.00     0.210 HD
ENDBRANCH   9  11
ENDBRANCH   8   9
ENDBRANCH   6   7
TORSDOF 3
