REMARK  1 active torsions:
REMARK  status: ('A' for Active; 'I' for Inactive)
REMARK    1  A    between atoms: C2_2  and  C3_3 
ROOT
HETATM    1  C1  UNL     1     -33.506   5.376   2.888  1.00 20.00    -0.061 C 
HETATM    2  C2  UNL     1     -33.533   4.095   3.272  1.00 20.00     0.088 C 
HETATM    3  C4  UNL     1     -32.736   7.356   4.146  1.00 20.00     0.009 C 
HETATM    4  C5  UNL     1     -32.309   8.037   2.832  1.00 20.00     0.006 C 
HETATM    5  C6  UNL     1     -34.582   7.442   2.646  1.00 20.00     0.014 C 
HETATM    6  C7  UNL     1     -33.976   6.549   3.727  1.00 20.00     0.016 C 
HETATM    7  C8  UNL     1     -33.299   7.452   1.799  1.00 20.00    -0.002 C 
HETATM    8  C9  UNL     1     -33.051   5.928   1.541  1.00 20.00    -0.020 C 
HETATM    9  C10 UNL     1     -33.930   5.417   0.384  1.00 20.00     0.020 C 
HETATM   10  C11 UNL     1     -31.587   5.593   1.226  1.00 20.00     0.020 C 
ENDROOT
BRANCH   2  11
HETATM   11  C3  UNL     1     -34.062   3.673   4.649  1.00 20.00     0.198 C 
HETATM   12  O12 UNL     1     -34.962   4.436   5.109  1.00 20.00    -0.644 OA
HETATM   13  O13 UNL     1     -33.557   2.638   5.165  1.00 20.00    -0.644 OA
ENDBRANCH   2  11
TORSDOF 1
