REMARK  1 active torsions:
REMARK  status: ('A' for Active; 'I' for Inactive)
REMARK    1  A    between atoms: C3_3  and  C6_6 
ROOT
HETATM    1  C1  UNL     1     -31.760   6.042   1.276  1.00 20.00    -0.030 C 
HETATM    2  C2  UNL     1     -31.652   7.317   1.669  1.00 20.00    -0.030 C 
HETATM    3  C4  UNL     1     -32.783   5.097   1.828  1.00 20.00     0.038 C 
HETATM    4  C5  UNL     1     -32.526   7.926   2.722  1.00 20.00     0.031 C 
HETATM    5  C6  UNL     1     -33.884   5.790   2.649  1.00 20.00     0.054 C 
HETATM    6  C7  UNL     1     -33.301   6.888   3.559  1.00 20.00    -0.004 C 
HETATM    7  C8  UNL     1     -34.381   7.597   4.381  1.00 20.00     0.011 C 
ENDROOT
BRANCH   5   8
HETATM    8  C3  UNL     1     -34.590   4.736   3.450  1.00 20.00     0.236 C 
HETATM    9  O9  UNL     1     -34.038   4.055   4.308  1.00 20.00    -0.306 OA
ENDBRANCH   5   8
TORSDOF 1
