REMARK  2 active torsions:
REMARK  status: ('A' for Active; 'I' for Inactive)
REMARK    1  A    between atoms: C1_1  and  S11_11 
REMARK    2  A    between atoms: C8_8  and  S11_11 
ROOT
HETATM    1  C2  UNL     1     -33.163   6.262   4.680  1.00 20.00     0.005 C 
HETATM    2  C3  UNL     1     -33.422   7.761   4.478  1.00 20.00     0.006 C 
HETATM    3  C4  UNL     1     -35.151   6.558   3.404  1.00 20.00     0.010 C 
HETATM    4  C5  UNL     1     -33.198   5.875   2.207  1.00 20.00     0.020 C 
HETATM    5  C6  UNL     1     -33.952   5.618   3.527  1.00 20.00    -0.013 C 
HETATM    6  C7  UNL     1     -34.273   7.798   3.196  1.00 20.00     0.000 C 
HETATM    7  C8  UNL     1     -33.477   7.368   1.941  1.00 20.00     0.059 C 
ENDROOT
BRANCH   7   8
HETATM    8  S11 UNL     1     -31.976   8.327   1.600  1.00 20.00    -0.088 SA
BRANCH   8   9
HETATM    9  C1  UNL     1     -32.675   9.724   0.785  1.00 20.00     0.182 C 
HETATM   10  C9  UNL     1     -33.046  10.839   1.722  1.00 20.00     0.104 C 
HETATM   11  O10 UNL     1     -32.843   9.786  -0.427  1.00 20.00    -0.286 OA
ENDBRANCH   8   9
ENDBRANCH   7   8
TORSDOF 2
