REMARK  0 active torsions:
REMARK  status: ('A' for Active; 'I' for Inactive)
ROOT
HETATM    1  C1  UNL     1     -31.983   7.056   1.690  1.00 20.00     0.000 C 
HETATM    2  C2  UNL     1     -32.715   8.065   2.578  1.00 20.00     0.003 C 
HETATM    3  C3  UNL     1     -32.889   5.883   1.306  1.00 20.00     0.003 C 
HETATM    4  C4  UNL     1     -33.304   7.396   3.819  1.00 20.00     0.040 C 
HETATM    5  C5  UNL     1     -33.479   5.204   2.542  1.00 20.00     0.040 C 
HETATM    6  C6  UNL     1     -35.655   6.317   3.463  1.00 20.00     0.207 A 
HETATM    7  C7  UNL     1     -34.148   6.222   3.418  1.00 20.00     0.082 A 
HETATM    8  O8  UNL     1     -34.907   5.655   4.494  1.00 20.00    -0.375 OA
ENDROOT
TORSDOF 0
