REMARK  1 active torsions:
REMARK  status: ('A' for Active; 'I' for Inactive)
REMARK    1  A    between atoms: C3_3  and  C7_7 
ROOT
HETATM    1  C1  UNL     1     -33.674   6.306   2.802  1.00 20.00    -0.020 C 
HETATM    2  C2  UNL     1     -33.677   7.517   3.387  1.00 20.00    -0.086 C 
HETATM    3  C4  UNL     1     -33.245   8.764   2.656  1.00 20.00     0.045 C 
HETATM    4  C5  UNL     1     -33.203   7.363   0.554  1.00 20.00     0.020 C 
HETATM    5  C6  UNL     1     -33.279   6.060   1.369  1.00 20.00     0.005 C 
HETATM    6  C7  UNL     1     -32.517   8.483   1.336  1.00 20.00     0.051 C 
HETATM    7  C8  UNL     1     -34.117   7.707   4.809  1.00 20.00     0.043 C 
HETATM    8  C9  UNL     1     -31.959   5.287   1.319  1.00 20.00     0.014 C 
ENDROOT
BRANCH   6   9
HETATM    9  C3  UNL     1     -32.481   9.735   0.513  1.00 20.00     0.236 C 
HETATM   10  O10 UNL     1     -32.956   9.817  -0.615  1.00 20.00    -0.306 OA
ENDBRANCH   6   9
TORSDOF 1
