REMARK  2 active torsions:
REMARK  status: ('A' for Active; 'I' for Inactive)
REMARK    1  A    between atoms: C1_1  and  S11_11 
REMARK    2  A    between atoms: C8_8  and  S11_11 
ROOT
HETATM    1  C2  UNL     1     -32.762  10.469   0.374  1.00 20.00     0.005 C 
HETATM    2  C3  UNL     1     -32.945  10.184   1.872  1.00 20.00     0.006 C 
HETATM    3  C4  UNL     1     -31.229   8.774   1.037  1.00 20.00     0.010 C 
HETATM    4  C5  UNL     1     -33.155   8.050  -0.163  1.00 20.00     0.020 C 
HETATM    5  C6  UNL     1     -32.106   9.179  -0.146  1.00 20.00    -0.013 C 
HETATM    6  C7  UNL     1     -32.404   8.748   2.019  1.00 20.00     0.000 C 
HETATM    7  C8  UNL     1     -33.406   7.790   1.337  1.00 20.00     0.059 C 
ENDROOT
BRANCH   7   8
HETATM    8  S11 UNL     1     -33.105   6.051   1.789  1.00 20.00    -0.088 SA
BRANCH   8   9
HETATM    9  C1  UNL     1     -33.959   5.984   3.327  1.00 20.00     0.182 C 
HETATM   10  C9  UNL     1     -33.897   4.632   3.980  1.00 20.00     0.104 C 
HETATM   11  O10 UNL     1     -34.547   6.938   3.821  1.00 20.00    -0.286 OA
ENDBRANCH   8   9
ENDBRANCH   7   8
TORSDOF 2
