REMARK  1 active torsions:
REMARK  status: ('A' for Active; 'I' for Inactive)
REMARK    1  A    between atoms: C1_1  and  C3_3 
ROOT
HETATM    1  C1  UNL     1     -33.728   7.658   3.467  1.00 20.00     0.037 C 
HETATM    2  C2  UNL     1     -32.757   7.864   2.569  1.00 20.00    -0.028 C 
HETATM    3  C4  UNL     1     -32.203   6.785   1.697  1.00 20.00     0.036 C 
ENDROOT
BRANCH   1   4
HETATM    4  C3  UNL     1     -34.294   6.304   3.617  1.00 20.00     0.258 C 
HETATM    5  O5  UNL     1     -35.455   6.122   3.964  1.00 20.00    -0.302 OA
ENDBRANCH   1   4
TORSDOF 1
