REMARK  1 active torsions:
REMARK  status: ('A' for Active; 'I' for Inactive)
REMARK    1  A    between atoms: C8_8  and  C9_9 
ROOT
HETATM    1  C1  UNL     1     -33.360   3.750   4.349  1.00 20.00     0.059 C 
HETATM    2  C9  UNL     1     -33.994   4.978   3.884  1.00 20.00     0.129 C 
HETATM    3  N10 UNL     1     -32.879   2.764   4.729  1.00 20.00    -0.197 NA
ENDROOT
BRANCH   2   4
HETATM    4  C8  UNL     1     -32.887   5.727   3.161  1.00 20.00     0.003 C 
HETATM    5  C5  UNL     1     -32.633   5.219   1.726  1.00 20.00     0.010 C 
HETATM    6  C6  UNL     1     -32.680   6.512   0.890  1.00 20.00    -0.014 C 
HETATM    7  C2  UNL     1     -34.143   6.976   0.783  1.00 20.00     0.005 C 
HETATM    8  C4  UNL     1     -32.094   7.543   1.855  1.00 20.00     0.009 C 
HETATM    9  C3  UNL     1     -34.439   7.509   2.192  1.00 20.00     0.005 C 
HETATM   10  C7  UNL     1     -33.126   7.241   2.947  1.00 20.00    -0.009 C 
ENDBRANCH   2   4
TORSDOF 1
