REMARK  1 active torsions:
REMARK  status: ('A' for Active; 'I' for Inactive)
REMARK    1  A    between atoms: C8_8  and  C9_9 
ROOT
HETATM    1  C1  UNL     1     -32.413   8.895   0.806  1.00 20.00     0.059 C 
HETATM    2  C9  UNL     1     -31.990   7.632   1.396  1.00 20.00     0.129 C 
HETATM    3  N10 UNL     1     -32.721   9.906   0.326  1.00 20.00    -0.197 NA
ENDROOT
BRANCH   2   4
HETATM    4  C8  UNL     1     -33.257   7.071   2.033  1.00 20.00     0.003 C 
HETATM    5  C5  UNL     1     -33.146   5.558   2.323  1.00 20.00     0.010 C 
HETATM    6  C6  UNL     1     -33.449   5.470   3.830  1.00 20.00    -0.014 C 
HETATM    7  C2  UNL     1     -34.931   5.805   4.068  1.00 20.00     0.005 C 
HETATM    8  C4  UNL     1     -32.755   6.723   4.360  1.00 20.00     0.009 C 
HETATM    9  C3  UNL     1     -34.987   7.320   3.824  1.00 20.00     0.005 C 
HETATM   10  C7  UNL     1     -33.535   7.660   3.437  1.00 20.00    -0.009 C 
ENDBRANCH   2   4
TORSDOF 1
