REMARK  0 active torsions:
REMARK  status: ('A' for Active; 'I' for Inactive)
ROOT
HETATM    1  C1  UNL     1     -32.364   8.882   1.177  1.00 20.00     0.086 C 
HETATM    2  C2  UNL     1     -32.695   4.994   3.036  1.00 20.00     0.005 C 
HETATM    3  C3  UNL     1     -33.783   6.028   3.357  1.00 20.00     0.008 C 
HETATM    4  C4  UNL     1     -33.428   6.028   1.022  1.00 20.00     0.012 C 
HETATM    5  C5  UNL     1     -31.306   6.732   1.878  1.00 20.00     0.046 C 
HETATM    6  C6  UNL     1     -32.164   5.464   1.671  1.00 20.00    -0.011 C 
HETATM    7  C7  UNL     1     -33.688   7.013   2.173  1.00 20.00     0.024 C 
HETATM    8  C8  UNL     1     -32.360   7.817   2.194  1.00 20.00     0.129 C 
HETATM    9  N9  UNL     1     -32.368   9.721   0.375  1.00 20.00    -0.195 NA
HETATM   10 CL10 UNL     1     -32.041   8.626   3.749  1.00 20.00    -0.102 Cl
ENDROOT
TORSDOF 0
