REMARK  1 active torsions:
REMARK  status: ('A' for Active; 'I' for Inactive)
REMARK    1  A    between atoms: C2_2  and  C3_3 
ROOT
HETATM    1  C3  UNL     1     -32.871   7.050   1.730  1.00 20.00     0.216 C 
HETATM    2 CL5  UNL     1     -31.859   5.610   1.362  1.00 20.00    -0.081 Cl
HETATM    3 CL6  UNL     1     -34.458   6.842   0.910  1.00 20.00    -0.081 Cl
HETATM    4 CL7  UNL     1     -32.064   8.494   1.024  1.00 20.00    -0.081 Cl
ENDROOT
BRANCH   1   5
HETATM    5  C2  UNL     1     -33.051   7.209   3.197  1.00 20.00     0.199 A 
HETATM    6  C1  UNL     1     -34.318   7.780   3.768  1.00 20.00     0.204 A 
HETATM    7  O4  UNL     1     -34.058   6.368   3.767  1.00 20.00    -0.377 OA
ENDBRANCH   1   5
TORSDOF 1
