REMARK  1 active torsions:
REMARK  status: ('A' for Active; 'I' for Inactive)
REMARK    1  A    between atoms: C8_8  and  O10_10 
ROOT
HETATM    1  C1  UNL     1     -33.109   6.019   0.775  1.00 20.00     0.005 C 
HETATM    2  C2  UNL     1     -31.407   7.534   1.815  1.00 20.00     0.005 C 
HETATM    3  C3  UNL     1     -34.165   7.122   0.927  1.00 20.00     0.008 C 
HETATM    4  C4  UNL     1     -32.481   8.619   1.968  1.00 20.00     0.008 C 
HETATM    5  C5  UNL     1     -32.738   5.971   3.252  1.00 20.00     0.042 C 
HETATM    6  C6  UNL     1     -32.047   6.137   1.883  1.00 20.00    -0.012 C 
HETATM    7  C7  UNL     1     -33.866   7.966   2.179  1.00 20.00     0.019 C 
HETATM    8  C8  UNL     1     -33.817   7.063   3.442  1.00 20.00     0.058 C 
HETATM    9  C9  UNL     1     -35.175   6.443   3.782  1.00 20.00     0.046 C 
ENDROOT
BRANCH   8  10
HETATM   10  O10 UNL     1     -33.440   7.862   4.571  1.00 20.00    -0.390 OA
HETATM   11  H26 UNL     1     -33.402   7.259   5.326  1.00 20.00     0.210 HD
ENDBRANCH   8  10
TORSDOF 1
