REMARK  0 active torsions:
REMARK  status: ('A' for Active; 'I' for Inactive)
ROOT
HETATM    1  C1  UNL     1     -32.260   5.245   1.548  1.00 20.00     0.018 C 
HETATM    2  C2  UNL     1     -33.858   7.366   4.092  1.00 20.00     0.018 C 
HETATM    3  C3  UNL     1     -32.505   4.625   2.927  1.00 20.00     0.022 C 
HETATM    4  C4  UNL     1     -32.411   7.676   3.700  1.00 20.00     0.022 C 
HETATM    5  C5  UNL     1     -32.799   6.666   1.320  1.00 20.00     0.066 C 
HETATM    6  C6  UNL     1     -34.543   6.214   3.340  1.00 20.00     0.066 C 
HETATM    7  C7  UNL     1     -33.925   4.811   3.474  1.00 20.00     0.096 C 
HETATM    8  C8  UNL     1     -32.130   7.745   2.194  1.00 20.00     0.096 C 
HETATM    9  S9  UNL     1     -34.600   6.638   1.574  1.00 20.00    -0.156 SA
HETATM   10 CL10 UNL     1     -33.968   4.268   5.186  1.00 20.00    -0.124 Cl
HETATM   11 CL11 UNL     1     -32.590   9.385   1.589  1.00 20.00    -0.124 Cl
ENDROOT
TORSDOF 0
