REMARK  0 active torsions:
REMARK  status: ('A' for Active; 'I' for Inactive)
ROOT
HETATM    1  C1  UNL     1     -34.680   5.824   3.749  1.00 20.00     0.064 C 
HETATM    2  C2  UNL     1     -32.534   5.595   2.544  1.00 20.00     0.022 C 
HETATM    3  C3  UNL     1     -31.654   6.167   1.432  1.00 20.00     0.036 C 
HETATM    4  C4  UNL     1     -33.355   7.858   3.298  1.00 20.00     0.053 C 
HETATM    5  C5  UNL     1     -33.772   6.471   2.786  1.00 20.00     0.095 C 
HETATM    6  C6  UNL     1     -31.383   7.626   1.613  1.00 20.00     0.151 A 
HETATM    7  C7  UNL     1     -32.247   8.474   2.506  1.00 20.00     0.152 A 
HETATM    8  N8  UNL     1     -35.395   5.315   4.508  1.00 20.00    -0.197 NA
HETATM    9  O9  UNL     1     -32.425   8.473   1.089  1.00 20.00    -0.375 OA
ENDROOT
TORSDOF 0
