REMARK  3 active torsions:
REMARK  status: ('A' for Active; 'I' for Inactive)
REMARK    1  A    between atoms: C1_1  and  C7_7 
REMARK    2  A    between atoms: C8_8  and  C10_10 
REMARK    3  A    between atoms: C9_9  and  C11_11 
ROOT
HETATM    1  C2  UNL     1     -35.085   5.736   4.199  1.00 20.00     0.012 C 
HETATM    2  C3  UNL     1     -34.417   4.720   3.211  1.00 20.00     0.006 C 
HETATM    3  C7  UNL     1     -34.598   7.166   3.771  1.00 20.00     0.052 C 
HETATM    4  C10 UNL     1     -34.051   5.657   2.094  1.00 20.00    -0.005 C 
HETATM    5  C11 UNL     1     -33.422   6.800   2.898  1.00 20.00     0.004 C 
ENDROOT
BRANCH   3   6
HETATM    6  C1  UNL     1     -34.193   7.973   4.960  1.00 20.00     0.236 C 
HETATM    7  O12 UNL     1     -33.051   8.384   5.141  1.00 20.00    -0.306 OA
ENDBRANCH   3   6
BRANCH   5   8
HETATM    8  C9  UNL     1     -32.683   7.585   1.801  1.00 20.00    -0.009 C 
HETATM    9  C5  UNL     1     -31.281   6.924   1.729  1.00 20.00     0.005 C 
HETATM   10  C4  UNL     1     -31.619   5.478   1.283  1.00 20.00     0.005 C 
HETATM   11  C8  UNL     1     -33.111   5.553   0.901  1.00 20.00    -0.010 C 
HETATM   12  C6  UNL     1     -33.231   7.038   0.469  1.00 20.00     0.010 C 
ENDBRANCH   5   8
TORSDOF 3
