REMARK  0 active torsions:
REMARK  status: ('A' for Active; 'I' for Inactive)
ROOT
HETATM    1  C1  UNL     1     -33.204   6.066   2.312  1.00 20.00     0.229 C 
HETATM    2  C2  UNL     1     -33.327   7.478   1.774  1.00 20.00     0.104 C 
HETATM    3  C3  UNL     1     -32.867   8.518   2.789  1.00 20.00     0.009 C 
HETATM    4  C4  UNL     1     -33.955   8.929   3.779  1.00 20.00     0.002 C 
HETATM    5  C5  UNL     1     -34.435   7.806   4.698  1.00 20.00     0.021 C 
HETATM    6  C6  UNL     1     -35.050   6.630   3.945  1.00 20.00     0.140 C 
HETATM    7  N7  UNL     1     -34.035   5.748   3.375  1.00 20.00    -0.284 N 
HETATM    8  O8  UNL     1     -32.391   5.288   1.806  1.00 20.00    -0.273 OA
HETATM    9 BR9  UNL     1     -33.858   4.027   4.177  1.00 20.00     0.052 Br
ENDROOT
TORSDOF 0
