REMARK  1 active torsions:
REMARK  status: ('A' for Active; 'I' for Inactive)
REMARK    1  A    between atoms: N5_5  and  N6_6 
ROOT
HETATM    1  C1  UNL     1     -34.140   6.526   3.551  1.00 20.00     0.101 C 
HETATM    2  C2  UNL     1     -35.540   6.308   4.033  1.00 20.00     0.058 C 
HETATM    3  N5  UNL     1     -33.919   7.094   2.411  1.00 20.00    -0.217 NA
ENDROOT
BRANCH   3   4
HETATM    4  N6  UNL     1     -32.594   7.204   2.131  1.00 20.00    -0.217 NA
HETATM    5  C3  UNL     1     -32.267   8.366   1.301  1.00 20.00     0.138 C 
HETATM    6  C4  UNL     1     -31.983   6.008   1.536  1.00 20.00     0.138 C 
ENDBRANCH   3   4
TORSDOF 1
