REMARK  0 active torsions:
REMARK  status: ('A' for Active; 'I' for Inactive)
ROOT
HETATM    1  C1  UNL     1     -33.433   7.782   3.209  1.00 20.00     0.178 C 
HETATM    2  C2  UNL     1     -32.053   8.383   3.011  1.00 20.00     0.102 C 
HETATM    3  C3  UNL     1     -32.787   6.462   1.425  1.00 20.00     0.241 C 
HETATM    4  O4  UNL     1     -33.404   6.438   2.716  1.00 20.00    -0.381 OA
HETATM    5  S5  UNL     1     -31.605   7.823   1.359  1.00 20.00    -0.141 SA
ENDROOT
TORSDOF 0
