REMARK  0 active torsions:
REMARK  status: ('A' for Active; 'I' for Inactive)
ROOT
HETATM    1  C1  UNL     1     -32.970   7.804   3.203  1.00 20.00    -0.025 A 
HETATM    2  C2  UNL     1     -33.235   6.839   2.306  1.00 20.00     0.003 A 
HETATM    3  C3  UNL     1     -33.922   7.689   4.370  1.00 20.00     0.061 A 
HETATM    4  C4  UNL     1     -34.335   5.954   2.717  1.00 20.00     0.173 A 
HETATM    5  C5  UNL     1     -34.855   6.558   4.007  1.00 20.00     0.158 A 
HETATM    6  O6  UNL     1     -34.315   5.239   3.963  1.00 20.00    -0.371 OA
ENDROOT
TORSDOF 0
