REMARK  1 active torsions:
REMARK  status: ('A' for Active; 'I' for Inactive)
REMARK    1  A    between atoms: C1_1  and  C3_3 
ROOT
HETATM    1  C1  UNL     1     -33.027   6.809   3.629  1.00 20.00     0.181 A 
HETATM    2  C2  UNL     1     -33.907   5.633   3.318  1.00 20.00     0.247 A 
HETATM    3  O4  UNL     1     -34.392   6.758   4.061  1.00 20.00    -0.358 OA
HETATM    4 CL5  UNL     1     -33.659   4.120   4.145  1.00 20.00    -0.092 Cl
ENDROOT
BRANCH   1   5
HETATM    5  C3  UNL     1     -32.744   7.847   2.604  1.00 20.00     0.150 C 
HETATM    6 CL6  UNL     1     -31.468   7.314   1.473  1.00 20.00    -0.128 Cl
ENDBRANCH   1   5
TORSDOF 1
