REMARK  2 active torsions:
REMARK  status: ('A' for Active; 'I' for Inactive)
REMARK    1  A    between atoms: C2_2  and  C6_6 
REMARK    2  A    between atoms: C6_6  and  O7_7 
ROOT
HETATM    1  C4  UNL     1     -33.731   7.496   3.263  1.00 20.00     0.050 C 
HETATM    2  C5  UNL     1     -32.856   5.884   1.540  1.00 20.00     0.050 C 
HETATM    3  C6  UNL     1     -32.814   7.327   2.049  1.00 20.00     0.068 C 
ENDROOT
BRANCH   3   4
HETATM    4  C2  UNL     1     -33.243   8.272   0.948  1.00 20.00     0.005 C 
HETATM    5  C1  UNL     1     -32.498   9.241   0.394  1.00 20.00    -0.032 C 
HETATM    6  C3  UNL     1     -32.986  10.142  -0.692  1.00 20.00     0.036 C 
ENDBRANCH   3   4
BRANCH   3   7
HETATM    7  O7  UNL     1     -31.477   7.609   2.465  1.00 20.00    -0.387 OA
HETATM    8  H19 UNL     1     -31.269   6.972   3.166  1.00 20.00     0.211 HD
ENDBRANCH   3   7
TORSDOF 2
