REMARK  0 active torsions:
REMARK  status: ('A' for Active; 'I' for Inactive)
ROOT
HETATM    1  C1  UNL     1     -33.164   7.819   3.472  1.00 20.00     0.066 C 
HETATM    2  C2  UNL     1     -33.250   5.444   2.618  1.00 20.00     0.066 C 
HETATM    3  C3  UNL     1     -32.511   8.191   2.144  1.00 20.00     0.170 C 
HETATM    4  C4  UNL     1     -32.592   5.961   1.342  1.00 20.00     0.170 C 
HETATM    5  C5  UNL     1     -35.484   6.623   3.297  1.00 20.00     0.207 A 
HETATM    6  C6  UNL     1     -33.975   6.573   3.285  1.00 20.00     0.086 A 
HETATM    7  O7  UNL     1     -31.755   7.087   1.631  1.00 20.00    -0.391 OA
HETATM    8  O8  UNL     1     -34.732   6.186   4.439  1.00 20.00    -0.375 OA
ENDROOT
TORSDOF 0
