REMARK  1 active torsions:
REMARK  status: ('A' for Active; 'I' for Inactive)
REMARK    1  A    between atoms: C1_1  and  S5_5 
ROOT
HETATM    1  C1  UNL     1     -33.865   5.761   3.017  1.00 20.00     0.041 C 
HETATM    2  C2  UNL     1     -34.830   6.776   3.572  1.00 20.00     0.069 C 
HETATM    3  S4  UNL     1     -33.687   4.253   3.723  1.00 20.00    -0.078 SA
ENDROOT
BRANCH   1   4
HETATM    4  S5  UNL     1     -32.930   6.259   1.612  1.00 20.00    -0.128 SA
HETATM    5  C3  UNL     1     -32.061   7.685   2.304  1.00 20.00     0.096 C 
ENDBRANCH   1   4
TORSDOF 1
