REMARK  2 active torsions:
REMARK  status: ('A' for Active; 'I' for Inactive)
REMARK    1  A    between atoms: C5_5  and  C6_6 
REMARK    2  A    between atoms: C6_6  and  O7_7 
ROOT
HETATM    1  C1  UNL     1     -32.793   7.276   2.096  1.00 20.00    -0.004 A 
HETATM    2  C2  UNL     1     -32.847   5.842   1.990  1.00 20.00    -0.004 A 
HETATM    3  C3  UNL     1     -33.473   7.672   3.181  1.00 20.00    -0.016 A 
HETATM    4  C4  UNL     1     -33.559   5.342   3.009  1.00 20.00    -0.016 A 
HETATM    5  C5  UNL     1     -34.040   6.468   3.889  1.00 20.00     0.054 A 
ENDROOT
BRANCH   5   6
HETATM    6  C6  UNL     1     -35.559   6.517   3.985  1.00 20.00     0.176 C 
BRANCH   6   7
HETATM    7  O7  UNL     1     -36.009   5.350   4.650  1.00 20.00    -0.400 OA
HETATM    8  H15 UNL     1     -36.979   5.405   4.698  1.00 20.00     0.209 HD
ENDBRANCH   6   7
ENDBRANCH   5   6
TORSDOF 2
