REMARK  0 active torsions:
REMARK  status: ('A' for Active; 'I' for Inactive)
ROOT
HETATM    1  C1  UNL     1     -33.032   6.432   1.516  1.00 20.00     0.029 C 
HETATM    2  C2  UNL     1     -33.506   5.537   2.659  1.00 20.00     0.044 C 
HETATM    3  C3  UNL     1     -32.347   7.682   2.064  1.00 20.00     0.167 C 
HETATM    4  C4  UNL     1     -33.602   7.630   4.081  1.00 20.00     0.207 C 
HETATM    5  C5  UNL     1     -35.765   6.198   3.789  1.00 20.00     0.209 A 
HETATM    6  C6  UNL     1     -34.271   6.364   3.646  1.00 20.00     0.103 A 
HETATM    7  O7  UNL     1     -33.228   8.400   2.933  1.00 20.00    -0.388 OA
HETATM    8  O8  UNL     1     -34.846   5.608   4.720  1.00 20.00    -0.373 OA
ENDROOT
TORSDOF 0
