REMARK  1 active torsions:
REMARK  status: ('A' for Active; 'I' for Inactive)
REMARK    1  A    between atoms: C1_1  and  C3_3 
ROOT
HETATM    1  C1  UNL     1     -33.513   7.541   3.207  1.00 20.00     0.181 A 
HETATM    2  C2  UNL     1     -34.787   7.177   3.918  1.00 20.00     0.247 A 
HETATM    3  O4  UNL     1     -33.688   7.786   4.608  1.00 20.00    -0.358 OA
HETATM    4 CL5  UNL     1     -35.205   5.526   4.275  1.00 20.00    -0.092 Cl
ENDROOT
BRANCH   1   5
HETATM    5  C3  UNL     1     -32.441   6.561   2.888  1.00 20.00     0.150 C 
HETATM    6 CL6  UNL     1     -32.848   5.603   1.435  1.00 20.00    -0.128 Cl
ENDBRANCH   1   5
TORSDOF 1
