REMARK  1 active torsions:
REMARK  status: ('A' for Active; 'I' for Inactive)
REMARK    1  A    between atoms: C1_1  and  C6_6 
ROOT
HETATM    1  C2  UNL     1     -33.218   5.593   1.482  1.00 20.00     0.002 C 
HETATM    2  C3  UNL     1     -31.769   6.036   1.306  1.00 20.00     0.012 C 
HETATM    3  C4  UNL     1     -33.700   5.796   2.915  1.00 20.00     0.009 C 
HETATM    4  C5  UNL     1     -32.096   7.744   3.179  1.00 20.00     0.021 C 
HETATM    5  C6  UNL     1     -31.508   7.460   1.791  1.00 20.00     0.055 C 
HETATM    6  C7  UNL     1     -33.545   7.248   3.412  1.00 20.00    -0.047 C 
HETATM    7  C9  UNL     1     -34.569   8.169   2.722  1.00 20.00     0.015 C 
HETATM    8  C10 UNL     1     -33.839   7.288   4.926  1.00 20.00     0.015 C 
ENDROOT
BRANCH   5   9
HETATM    9  C1  UNL     1     -31.956   8.480   0.785  1.00 20.00     0.127 C 
HETATM   10  C8  UNL     1     -31.377   8.366  -0.599  1.00 20.00     0.091 C 
HETATM   11  O11 UNL     1     -32.759   9.365   1.078  1.00 20.00    -0.298 OA
ENDBRANCH   5   9
TORSDOF 1
