REMARK  2 active torsions:
REMARK  status: ('A' for Active; 'I' for Inactive)
REMARK    1  A    between atoms: C8_8  and  C9_9 
REMARK    2  A    between atoms: C8_8  and  O10_10 
ROOT
HETATM    1  C1  UNL     1     -32.162  10.533   0.149  1.00 20.00     0.012 C 
HETATM    2  C2  UNL     1     -32.263   9.337   0.157  1.00 20.00    -0.115 C 
HETATM    3  C9  UNL     1     -32.385   7.878   0.152  1.00 20.00     0.130 C 
ENDROOT
BRANCH   3   4
HETATM    4  C8  UNL     1     -32.493   7.333   1.577  1.00 20.00     0.068 C 
HETATM    5  C6  UNL     1     -32.621   5.802   1.558  1.00 20.00     0.038 C 
HETATM    6  C4  UNL     1     -32.824   5.219   2.958  1.00 20.00     0.003 C 
HETATM    7  C3  UNL     1     -34.009   5.865   3.670  1.00 20.00     0.000 C 
HETATM    8  C5  UNL     1     -33.878   7.384   3.713  1.00 20.00     0.003 C 
HETATM    9  C7  UNL     1     -33.680   7.973   2.315  1.00 20.00     0.038 C 
BRANCH   4  10
HETATM   10  O10 UNL     1     -31.283   7.667   2.264  1.00 20.00    -0.389 OA
HETATM   11  H24 UNL     1     -31.228   8.633   2.261  1.00 20.00     0.210 HD
ENDBRANCH   4  10
ENDBRANCH   3   4
TORSDOF 2
