REMARK  0 active torsions:
REMARK  status: ('A' for Active; 'I' for Inactive)
ROOT
HETATM    1  C1  UNL     1     -32.202   6.070   1.525  1.00 20.00     0.029 C 
HETATM    2  C2  UNL     1     -33.638   5.808   1.973  1.00 20.00     0.044 C 
HETATM    3  C3  UNL     1     -31.854   7.549   1.679  1.00 20.00     0.167 C 
HETATM    4  C4  UNL     1     -33.407   7.850   3.453  1.00 20.00     0.207 C 
HETATM    5  C5  UNL     1     -34.020   5.560   4.544  1.00 20.00     0.209 A 
HETATM    6  C6  UNL     1     -33.852   6.428   3.320  1.00 20.00     0.103 A 
HETATM    7  O7  UNL     1     -32.043   7.973   3.033  1.00 20.00    -0.388 OA
HETATM    8  O8  UNL     1     -35.142   6.164   3.886  1.00 20.00    -0.373 OA
ENDROOT
TORSDOF 0
