REMARK  0 active torsions:
REMARK  status: ('A' for Active; 'I' for Inactive)
ROOT
HETATM    1  C1  UNL     1     -33.045   5.819   3.412  1.00 20.00     0.374 C 
HETATM    2  C2  UNL     1     -33.019   6.279   1.951  1.00 20.00     0.398 C 
HETATM    3  C3  UNL     1     -34.260   6.744   3.523  1.00 20.00     0.398 C 
HETATM    4  O4  UNL     1     -34.344   6.852   2.080  1.00 20.00    -0.252 OA
HETATM    5  F5  UNL     1     -33.287   4.504   3.610  1.00 20.00    -0.231 F 
HETATM    6  F6  UNL     1     -32.959   5.305   1.018  1.00 20.00    -0.172 F 
HETATM    7  F7  UNL     1     -32.084   7.201   1.633  1.00 20.00    -0.172 F 
HETATM    8  F8  UNL     1     -34.049   7.938   4.120  1.00 20.00    -0.172 F 
HETATM    9  F9  UNL     1     -35.372   6.210   4.072  1.00 20.00    -0.172 F 
ENDROOT
TORSDOF 0
