REMARK  2 active torsions:
REMARK  status: ('A' for Active; 'I' for Inactive)
REMARK    1  A    between atoms: C4_4  and  C7_7 
REMARK    2  A    between atoms: C8_8  and  O11_11 
ROOT
HETATM    1  C1  UNL     1     -32.803   6.372   1.690  1.00 20.00    -0.019 C 
HETATM    2  C2  UNL     1     -33.781   5.838   2.436  1.00 20.00     0.007 C 
HETATM    3  C5  UNL     1     -32.160   7.877   3.607  1.00 20.00     0.016 C 
HETATM    4  C6  UNL     1     -33.627   7.795   4.042  1.00 20.00     0.042 C 
HETATM    5  C7  UNL     1     -31.992   7.572   2.106  1.00 20.00     0.036 C 
HETATM    6  C8  UNL     1     -34.218   6.398   3.765  1.00 20.00     0.072 C 
HETATM    7  C10 UNL     1     -35.746   6.447   3.853  1.00 20.00     0.050 C 
ENDROOT
BRANCH   5   8
HETATM    8  C4  UNL     1     -32.333   8.762   1.256  1.00 20.00    -0.085 C 
HETATM    9  C3  UNL     1     -32.778   9.910   1.789  1.00 20.00     0.014 C 
HETATM   10  C9  UNL     1     -32.147   8.594  -0.222  1.00 20.00     0.043 C 
ENDBRANCH   5   8
BRANCH   6  11
HETATM   11  O11 UNL     1     -33.750   5.489   4.766  1.00 20.00    -0.386 OA
HETATM   12  H27 UNL     1     -34.164   4.636   4.572  1.00 20.00     0.211 HD
ENDBRANCH   6  11
TORSDOF 2
