REMARK  1 active torsions:
REMARK  status: ('A' for Active; 'I' for Inactive)
REMARK    1  A    between atoms: C2_2  and  C3_3 
ROOT
HETATM    1  C1  UNL     1     -33.182   8.394   3.680  1.00 20.00    -0.012 C 
HETATM    2  C2  UNL     1     -32.956   7.642   2.595  1.00 20.00    -0.001 C 
HETATM    3  C4  UNL     1     -34.097   7.911   4.766  1.00 20.00     0.054 C 
HETATM    4  C5  UNL     1     -33.563   6.284   2.415  1.00 20.00     0.209 C 
HETATM    5  C6  UNL     1     -34.936   6.722   4.300  1.00 20.00     0.171 C 
HETATM    6  O8  UNL     1     -34.101   5.768   3.641  1.00 20.00    -0.386 OA
ENDROOT
BRANCH   2   7
HETATM    7  C3  UNL     1     -32.061   8.163   1.561  1.00 20.00     0.267 C 
HETATM    8  O7  UNL     1     -32.462   8.839   0.620  1.00 20.00    -0.302 OA
ENDBRANCH   2   7
TORSDOF 1
