REMARK  3 active torsions:
REMARK  status: ('A' for Active; 'I' for Inactive)
REMARK    1  A    between atoms: C1_1  and  C2_2 
REMARK    2  A    between atoms: C1_1  and  C3_3 
REMARK    3  A    between atoms: C2_2  and  S8_8 
ROOT
HETATM    1  C1  UNL     1     -32.996   6.704   2.253  1.00 20.00     0.241 C 
HETATM    2  O4  UNL     1     -33.158   5.879   1.355  1.00 20.00    -0.287 OA
ENDROOT
BRANCH   1   3
HETATM    3  C2  UNL     1     -31.972   7.819   2.201  1.00 20.00     0.158 C 
BRANCH   3   4
HETATM    4  S8  UNL     1     -32.644   9.318   1.447  1.00 20.00    -0.174 SA
HETATM    5  H11 UNL     1     -31.529  10.055   1.559  1.00 20.00     0.102 HD
ENDBRANCH   3   4
ENDBRANCH   1   3
BRANCH   1   6
HETATM    6  C3  UNL     1     -33.836   6.648   3.499  1.00 20.00     0.451 C 
HETATM    7  F5  UNL     1     -33.511   7.636   4.370  1.00 20.00    -0.163 F 
HETATM    8  F6  UNL     1     -35.157   6.782   3.222  1.00 20.00    -0.163 F 
HETATM    9  F7  UNL     1     -33.690   5.474   4.163  1.00 20.00    -0.163 F 
ENDBRANCH   1   6
TORSDOF 3
