REMARK  0 active torsions:
REMARK  status: ('A' for Active; 'I' for Inactive)
ROOT
HETATM    1  C1  UNL     1     -33.755   4.530   3.753  1.00 20.00     0.127 C 
HETATM    2  C2  UNL     1     -32.972   4.986   2.536  1.00 20.00     0.082 C 
HETATM    3  C3  UNL     1     -35.062   5.239   4.057  1.00 20.00     0.082 C 
HETATM    4  C4  UNL     1     -32.668   7.325   3.472  1.00 20.00     0.005 C 
HETATM    5  C5  UNL     1     -33.902   7.473   4.372  1.00 20.00     0.005 C 
HETATM    6  C6  UNL     1     -34.620   6.837   2.182  1.00 20.00     0.010 C 
HETATM    7  C7  UNL     1     -33.137   6.488   2.272  1.00 20.00    -0.007 C 
HETATM    8  C8  UNL     1     -35.026   6.716   3.648  1.00 20.00    -0.007 C 
HETATM    9  O9  UNL     1     -33.397   3.550   4.407  1.00 20.00    -0.298 OA
ENDROOT
TORSDOF 0
