REMARK  0 active torsions:
REMARK  status: ('A' for Active; 'I' for Inactive)
ROOT
HETATM    1  C1  UNL     1     -33.598   6.112   2.360  1.00 20.00     0.223 C 
HETATM    2  C2  UNL     1     -34.044   6.406   3.550  1.00 20.00    -0.033 C 
HETATM    3  C3  UNL     1     -33.501   7.558   4.347  1.00 20.00     0.047 C 
HETATM    4  C4  UNL     1     -35.134   5.618   4.216  1.00 20.00     0.047 C 
HETATM    5  O5  UNL     1     -33.197   5.846   1.287  1.00 20.00    -0.284 OA
ENDROOT
TORSDOF 0
