REMARK  5 active torsions:
REMARK  status: ('A' for Active; 'I' for Inactive)
REMARK    1  A    between atoms: C1_1  and  C4_4 
REMARK    2  A    between atoms: C2_2  and  C7_7 
REMARK    3  A    between atoms: C7_7  and  C9_9 
REMARK    4  A    between atoms: C8_8  and  C9_9 
REMARK    5  A    between atoms: C9_9  and  O10_10 
ROOT
HETATM    1  C7  UNL     1     -32.501   7.113   1.255  1.00 20.00     0.126 C 
ENDROOT
BRANCH   1   2
HETATM    2  C2  UNL     1     -33.154   6.250   2.251  1.00 20.00    -0.099 C 
HETATM    3  C1  UNL     1     -33.689   5.545   3.064  1.00 20.00    -0.072 C 
BRANCH   3   4
HETATM    4  C4  UNL     1     -34.318   4.708   4.033  1.00 20.00    -0.018 C 
HETATM    5  C3  UNL     1     -35.539   5.031   4.484  1.00 20.00     0.028 C 
HETATM    6  C5  UNL     1     -33.591   3.490   4.521  1.00 20.00     0.057 C 
ENDBRANCH   3   4
ENDBRANCH   1   2
BRANCH   1   7
HETATM    7  C9  UNL     1     -32.284   8.548   1.753  1.00 20.00     0.129 C 
BRANCH   7   8
HETATM    8  C8  UNL     1     -31.587   9.449   0.726  1.00 20.00     0.028 C 
HETATM    9  C6  UNL     1     -32.389   9.576  -0.563  1.00 20.00     0.007 C 
ENDBRANCH   7   8
BRANCH   7  10
HETATM   10  O10 UNL     1     -31.527   8.532   2.961  1.00 20.00    -0.395 OA
HETATM   11  H24 UNL     1     -32.043   8.020   3.602  1.00 20.00     0.210 HD
ENDBRANCH   7  10
ENDBRANCH   1   7
TORSDOF 5
