REMARK  4 active torsions:
REMARK  status: ('A' for Active; 'I' for Inactive)
REMARK    1  A    between atoms: C5_5  and  C7_7 
REMARK    2  A    between atoms: C5_5  and  C8_8 
REMARK    3  A    between atoms: C6_6  and  C7_7 
REMARK    4  A    between atoms: C6_6  and  S9_9 
ROOT
HETATM    1  C5  UNL     1     -32.995   7.457   2.818  1.00 20.00     0.013 C 
ENDROOT
BRANCH   1   2
HETATM    2  C7  UNL     1     -32.743   6.924   1.385  1.00 20.00    -0.009 C 
HETATM    3  C1  UNL     1     -32.143   5.518   1.342  1.00 20.00     0.011 C 
BRANCH   2   4
HETATM    4  C6  UNL     1     -31.890   7.917   0.558  1.00 20.00     0.075 C 
BRANCH   4   5
HETATM    5  S9  UNL     1     -32.716   9.473   0.098  1.00 20.00    -0.182 SA
HETATM    6  H27 UNL     1     -31.673   9.990  -0.564  1.00 20.00     0.101 HD
ENDBRANCH   4   5
ENDBRANCH   2   4
ENDBRANCH   1   2
BRANCH   1   7
HETATM    7  C8  UNL     1     -34.249   6.969   3.604  1.00 20.00    -0.051 C 
HETATM    8  C2  UNL     1     -35.559   7.335   2.891  1.00 20.00     0.014 C 
HETATM    9  C3  UNL     1     -34.211   5.453   3.867  1.00 20.00     0.014 C 
HETATM   10  C4  UNL     1     -34.237   7.670   4.982  1.00 20.00     0.014 C 
ENDBRANCH   1   7
TORSDOF 4
