REMARK  3 active torsions:
REMARK  status: ('A' for Active; 'I' for Inactive)
REMARK    1  A    between atoms: C1_1  and  C2_2 
REMARK    2  A    between atoms: C3_3  and  C8_8 
REMARK    3  A    between atoms: C8_8  and  C9_9 
ROOT
HETATM    1  C1  UNL     1     -34.024   4.931   4.814  1.00 20.00     0.043 C 
HETATM    2  C3  UNL     1     -34.363   5.888   3.930  1.00 20.00    -0.080 C 
HETATM    3  C4  UNL     1     -34.879   7.246   4.320  1.00 20.00     0.043 C 
ENDROOT
BRANCH   2   4
HETATM    4  C8  UNL     1     -34.149   5.644   2.444  1.00 20.00     0.042 C 
BRANCH   4   5
HETATM    5  C9  UNL     1     -32.755   6.004   1.854  1.00 20.00    -0.048 C 
HETATM    6  C5  UNL     1     -32.473   7.512   1.977  1.00 20.00     0.015 C 
HETATM    7  C6  UNL     1     -31.621   5.223   2.537  1.00 20.00     0.015 C 
HETATM    8  C7  UNL     1     -32.762   5.631   0.357  1.00 20.00     0.015 C 
ENDBRANCH   4   5
ENDBRANCH   2   4
BRANCH   1   9
HETATM    9  C2  UNL     1     -33.517   3.596   4.432  1.00 20.00     0.259 C 
HETATM   10  O10 UNL     1     -32.735   2.977   5.144  1.00 20.00    -0.302 OA
ENDBRANCH   1   9
TORSDOF 3
