REMARK  2 active torsions:
REMARK  status: ('A' for Active; 'I' for Inactive)
REMARK    1  A    between atoms: C6_6  and  C8_8 
REMARK    2  A    between atoms: C7_7  and  C8_8 
ROOT
HETATM    1  C1  UNL     1     -33.226   6.326   1.699  1.00 20.00     0.075 C 
HETATM    2  C8  UNL     1     -32.480   7.488   2.239  1.00 20.00     0.186 C 
HETATM    3  N9  UNL     1     -33.810   5.423   1.262  1.00 20.00    -0.196 NA
ENDROOT
BRANCH   2   4
HETATM    4  C6  UNL     1     -32.405   8.618   1.269  1.00 20.00    -0.031 A 
HETATM    5  C2  UNL     1     -31.814   8.431   0.024  1.00 20.00     0.028 A 
HETATM    6  C4  UNL     1     -31.770   9.512  -0.841  1.00 20.00     0.116 A 
HETATM    7  N10 UNL     1     -32.266  10.736  -0.550  1.00 20.00    -0.273 NA
HETATM    8  C5  UNL     1     -32.833  10.879   0.669  1.00 20.00     0.116 A 
HETATM    9  C3  UNL     1     -32.927   9.862   1.605  1.00 20.00     0.028 A 
ENDBRANCH   2   4
BRANCH   2  10
HETATM   10  C7  UNL     1     -33.056   7.931   3.580  1.00 20.00     0.255 C 
HETATM   11  O11 UNL     1     -34.064   7.470   4.107  1.00 20.00    -0.305 OA
ENDBRANCH   2  10
TORSDOF 2
