REMARK  4 active torsions:
REMARK  status: ('A' for Active; 'I' for Inactive)
REMARK    1  A    between atoms: C1_1  and  C7_7 
REMARK    2  A    between atoms: C2_2  and  C9_9 
REMARK    3  A    between atoms: C9_9  and  C11_11 
REMARK    4  A    between atoms: C10_10  and  C11_11 
ROOT
HETATM    1  C3  UNL     1     -33.600   4.043   4.295  1.00 20.00     0.006 C 
HETATM    2  C4  UNL     1     -35.080   4.380   4.373  1.00 20.00     0.026 C 
HETATM    3  C5  UNL     1     -32.938   4.753   3.112  1.00 20.00     0.045 C 
HETATM    4  C6  UNL     1     -35.295   5.891   4.453  1.00 20.00     0.169 C 
HETATM    5  C7  UNL     1     -33.690   6.025   2.702  1.00 20.00     0.200 C 
HETATM    6  O12 UNL     1     -34.235   6.648   3.863  1.00 20.00    -0.374 OA
ENDROOT
BRANCH   5   7
HETATM    7  C1  UNL     1     -32.794   6.969   2.023  1.00 20.00    -0.074 C 
HETATM    8  C2  UNL     1     -32.062   7.741   1.467  1.00 20.00    -0.104 C 
BRANCH   8   9
HETATM    9  C9  UNL     1     -31.163   8.685   0.788  1.00 20.00     0.094 C 
BRANCH   9  10
HETATM   10  C11 UNL     1     -31.937   9.589  -0.172  1.00 20.00     0.012 C 
BRANCH  10  11
HETATM   11  C10 UNL     1     -32.970  10.435   0.572  1.00 20.00    -0.004 C 
HETATM   12  C8  UNL     1     -32.318  11.300   1.639  1.00 20.00     0.005 C 
ENDBRANCH  10  11
ENDBRANCH   9  10
ENDBRANCH   8   9
ENDBRANCH   5   7
TORSDOF 4
