REMARK  1 active torsions:
REMARK  status: ('A' for Active; 'I' for Inactive)
REMARK    1  A    between atoms: C3_3  and  C8_8 
ROOT
HETATM    1  C1  UNL     1     -33.066   5.311   2.267  1.00 20.00     0.048 A 
HETATM    2  C2  UNL     1     -32.054   5.732   1.383  1.00 20.00     0.141 A 
HETATM    3  C3  UNL     1     -33.528   6.471   2.838  1.00 20.00     0.039 A 
HETATM    4  C7  UNL     1     -32.907   8.891   2.562  1.00 20.00     0.179 C 
HETATM    5  N9  UNL     1     -31.883   7.057   1.389  1.00 20.00    -0.185 NA
HETATM    6  N10 UNL     1     -32.794   7.478   2.283  1.00 20.00    -0.278 N 
ENDROOT
BRANCH   3   7
HETATM    7  C8  UNL     1     -34.628   6.714   3.885  1.00 20.00    -0.007 C 
HETATM    8  C4  UNL     1     -35.256   5.366   4.300  1.00 20.00     0.021 C 
HETATM    9  C5  UNL     1     -35.723   7.622   3.287  1.00 20.00     0.021 C 
HETATM   10  C6  UNL     1     -34.122   7.398   5.175  1.00 20.00     0.021 C 
ENDBRANCH   3   7
TORSDOF 1
