REMARK  0 active torsions:
REMARK  status: ('A' for Active; 'I' for Inactive)
ROOT
HETATM    1  C1  UNL     1     -32.414   6.547   1.757  1.00 20.00     0.145 C 
HETATM    2  C2  UNL     1     -32.428   8.964   1.037  1.00 20.00     0.061 C 
HETATM    3  C3  UNL     1     -33.138   8.195   3.523  1.00 20.00     0.061 C 
HETATM    4  C4  UNL     1     -31.577   7.698   1.192  1.00 20.00     0.103 C 
HETATM    5  C5  UNL     1     -33.534   6.950   2.722  1.00 20.00     0.103 C 
HETATM    6  C6  UNL     1     -30.808   7.251  -0.052  1.00 20.00     0.024 C 
HETATM    7  C7  UNL     1     -34.005   5.748   3.541  1.00 20.00     0.024 C 
HETATM    8  O8  UNL     1     -32.201   5.373   1.456  1.00 20.00    -0.296 OA
HETATM    9  S9  UNL     1     -32.879   9.645  -0.428  1.00 20.00    -0.076 SA
HETATM   10  S10 UNL     1     -32.812   8.216   5.168  1.00 20.00    -0.076 SA
HETATM   11  S11 UNL     1     -32.983   9.677   2.562  1.00 20.00    -0.074 SA
ENDROOT
TORSDOF 0
