REMARK  3 active torsions:
REMARK  status: ('A' for Active; 'I' for Inactive)
REMARK    1  A    between atoms: C3_3  and  C9_9 
REMARK    2  A    between atoms: C8_8  and  C10_10 
REMARK    3  A    between atoms: C9_9  and  C10_10 
ROOT
HETATM    1  C1  UNL     1     -32.981   8.822   1.061  1.00 20.00    -0.026 C 
HETATM    2  C2  UNL     1     -32.855   9.558   2.174  1.00 20.00    -0.025 C 
HETATM    3  C4  UNL     1     -31.232   7.918   2.269  1.00 20.00     0.017 C 
HETATM    4  C5  UNL     1     -33.301   6.734   2.337  1.00 20.00     0.013 C 
HETATM    5  C6  UNL     1     -32.371   7.471   1.347  1.00 20.00     0.009 C 
HETATM    6  C7  UNL     1     -32.167   8.694   3.206  1.00 20.00     0.012 C 
HETATM    7  C8  UNL     1     -33.117   7.551   3.654  1.00 20.00    -0.006 C 
ENDROOT
BRANCH   7   8
HETATM    8  C10 UNL     1     -34.429   8.009   4.274  1.00 20.00     0.012 C 
BRANCH   8   9
HETATM    9  C9  UNL     1     -35.115   6.874   5.024  1.00 20.00     0.070 C 
BRANCH   9  10
HETATM   10  C3  UNL     1     -35.412   5.689   4.137  1.00 20.00     0.231 C 
HETATM   11  O11 UNL     1     -35.002   4.550   4.332  1.00 20.00    -0.307 OA
ENDBRANCH   9  10
ENDBRANCH   8   9
ENDBRANCH   7   8
TORSDOF 3
