REMARK  2 active torsions:
REMARK  status: ('A' for Active; 'I' for Inactive)
REMARK    1  A    between atoms: C2_2  and  C3_3 
REMARK    2  A    between atoms: N7_7  and  N8_8 
ROOT
HETATM    1  C2  UNL     1     -32.741   7.816   2.351  1.00 20.00     0.138 C 
HETATM    2  N7  UNL     1     -31.785   7.827   1.479  1.00 20.00    -0.214 NA
ENDROOT
BRANCH   1   3
HETATM    3  C3  UNL     1     -33.496   6.581   2.714  1.00 20.00    -0.047 C 
HETATM    4  C1  UNL     1     -34.463   6.742   3.634  1.00 20.00    -0.023 C 
HETATM    5  C4  UNL     1     -35.375   5.694   4.187  1.00 20.00     0.036 C 
HETATM    6  C5  UNL     1     -33.100   5.313   2.023  1.00 20.00     0.049 C 
ENDBRANCH   1   3
BRANCH   2   7
HETATM    7  N8  UNL     1     -31.236   9.049   1.308  1.00 20.00    -0.222 NA
HETATM    8  C6  UNL     1     -31.940   9.932   0.393  1.00 20.00     0.135 C 
HETATM    9  H20 UNL     1     -30.253   8.982   1.046  1.00 20.00     0.148 HD
ENDBRANCH   2   7
TORSDOF 2
