REMARK  2 active torsions:
REMARK  status: ('A' for Active; 'I' for Inactive)
REMARK    1  A    between atoms: C6_6  and  O8_8 
REMARK    2  A    between atoms: N7_7  and  O8_8 
ROOT
HETATM    1  C1  UNL     1     -32.984  10.183  -0.357  1.00 20.00     0.014 C 
HETATM    2  C2  UNL     1     -32.313   9.509   0.377  1.00 20.00    -0.089 C 
HETATM    3  C6  UNL     1     -31.494   8.690   1.270  1.00 20.00     0.296 C 
ENDROOT
BRANCH   3   4
HETATM    4  O8  UNL     1     -32.248   7.599   1.775  1.00 20.00    -0.244 OA
BRANCH   4   5
HETATM    5  N7  UNL     1     -33.042   8.068   2.829  1.00 20.00    -0.143 NA
HETATM    6  C3  UNL     1     -33.758   7.111   3.334  1.00 20.00     0.032 C 
HETATM    7  C4  UNL     1     -34.720   7.288   4.483  1.00 20.00     0.067 C 
HETATM    8  C5  UNL     1     -33.633   5.734   2.738  1.00 20.00     0.067 C 
ENDBRANCH   4   5
ENDBRANCH   3   4
TORSDOF 2
