REMARK  4 active torsions:
REMARK  status: ('A' for Active; 'I' for Inactive)
REMARK    1  A    between atoms: C1_1  and  C6_6 
REMARK    2  A    between atoms: C2_2  and  C8_8 
REMARK    3  A    between atoms: C8_8  and  C10_10 
REMARK    4  A    between atoms: C9_9  and  C10_10 
ROOT
HETATM    1  C1  UNL     1     -33.375   7.385   3.183  1.00 20.00    -0.074 C 
HETATM    2  C2  UNL     1     -34.193   6.679   3.707  1.00 20.00    -0.104 C 
ENDROOT
BRANCH   1   3
HETATM    3  C6  UNL     1     -32.378   8.245   2.544  1.00 20.00     0.200 C 
HETATM    4  C4  UNL     1     -31.858   7.662   1.240  1.00 20.00     0.047 C 
HETATM    5  C3  UNL     1     -31.505   8.903   0.459  1.00 20.00     0.030 C 
HETATM    6  C5  UNL     1     -32.616   9.847   0.862  1.00 20.00     0.169 C 
HETATM    7  O11 UNL     1     -32.957   9.522   2.217  1.00 20.00    -0.374 OA
ENDBRANCH   1   3
BRANCH   2   8
HETATM    8  C8  UNL     1     -35.195   5.818   4.349  1.00 20.00     0.094 C 
BRANCH   8   9
HETATM    9  C10 UNL     1     -34.841   4.341   4.180  1.00 20.00     0.012 C 
BRANCH   9  10
HETATM   10  C9  UNL     1     -33.502   4.011   4.839  1.00 20.00    -0.004 C 
HETATM   11  C7  UNL     1     -33.165   2.534   4.709  1.00 20.00     0.005 C 
ENDBRANCH   9  10
ENDBRANCH   8   9
ENDBRANCH   2   8
TORSDOF 4
