REMARK  3 active torsions:
REMARK  status: ('A' for Active; 'I' for Inactive)
REMARK    1  A    between atoms: C1_1  and  C3_3 
REMARK    2  A    between atoms: C2_2  and  C7_7 
REMARK    3  A    between atoms: C7_7  and  C8_8 
ROOT
HETATM    1  C1  UNL     1     -32.970   7.919   3.057  1.00 20.00     0.045 C 
HETATM    2  C2  UNL     1     -32.571   7.826   1.781  1.00 20.00    -0.023 C 
ENDROOT
BRANCH   2   3
HETATM    3  C7  UNL     1     -31.612   8.792   1.143  1.00 20.00     0.031 C 
BRANCH   3   4
HETATM    4  C8  UNL     1     -32.241   9.590  -0.014  1.00 20.00    -0.019 C 
HETATM    5  C5  UNL     1     -32.720   8.632  -1.107  1.00 20.00     0.010 C 
HETATM    6  C6  UNL     1     -33.406  10.465   0.455  1.00 20.00     0.010 C 
ENDBRANCH   3   4
ENDBRANCH   2   3
BRANCH   1   7
HETATM    7  C3  UNL     1     -33.926   6.930   3.627  1.00 20.00     0.145 C 
HETATM    8  C4  UNL     1     -33.885   5.539   3.052  1.00 20.00     0.096 C 
HETATM    9  O9  UNL     1     -34.728   7.229   4.509  1.00 20.00    -0.294 OA
ENDBRANCH   1   7
TORSDOF 3
