REMARK  2 active torsions:
REMARK  status: ('A' for Active; 'I' for Inactive)
REMARK    1  A    between atoms: C4_4  and  C5_5 
REMARK    2  A    between atoms: C4_4  and  N6_6 
ROOT
HETATM    1  C1  UNL     1     -33.771   6.173   3.167  1.00 20.00     0.016 C 
HETATM    2  C2  UNL     1     -32.057   5.713   1.404  1.00 20.00     0.016 C 
HETATM    3  C3  UNL     1     -34.239   6.759   0.770  1.00 20.00     0.016 C 
HETATM    4  C5  UNL     1     -33.153   6.694   1.858  1.00 20.00    -0.036 C 
ENDROOT
BRANCH   4   5
HETATM    5  C4  UNL     1     -32.511   8.081   2.071  1.00 20.00     0.154 C 
BRANCH   5   6
HETATM    6  N6  UNL     1     -31.932   8.592   0.825  1.00 20.00    -0.063 NA
HETATM    7  O7  UNL     1     -32.462   9.649   0.447  1.00 20.00    -0.101 OA
ENDBRANCH   5   6
ENDBRANCH   4   5
TORSDOF 2
