REMARK  3 active torsions:
REMARK  status: ('A' for Active; 'I' for Inactive)
REMARK    1  A    between atoms: C3_3  and  C9_9 
REMARK    2  A    between atoms: C8_8  and  C10_10 
REMARK    3  A    between atoms: C9_9  and  C10_10 
ROOT
HETATM    1  C1  UNL     1     -32.338   7.312   0.243  1.00 20.00    -0.026 C 
HETATM    2  C2  UNL     1     -32.501   8.510   0.826  1.00 20.00    -0.025 C 
HETATM    3  C4  UNL     1     -31.202   7.245   2.254  1.00 20.00     0.017 C 
HETATM    4  C5  UNL     1     -33.284   6.105   2.187  1.00 20.00     0.013 C 
HETATM    5  C6  UNL     1     -32.012   6.324   1.338  1.00 20.00     0.009 C 
HETATM    6  C7  UNL     1     -32.298   8.315   2.313  1.00 20.00     0.012 C 
HETATM    7  C8  UNL     1     -33.516   7.507   2.834  1.00 20.00    -0.006 C 
ENDROOT
BRANCH   7   8
HETATM    8  C10 UNL     1     -33.579   7.440   4.356  1.00 20.00     0.012 C 
BRANCH   8   9
HETATM    9  C9  UNL     1     -34.960   7.014   4.836  1.00 20.00     0.070 C 
BRANCH   9  10
HETATM   10  C3  UNL     1     -35.345   5.641   4.341  1.00 20.00     0.231 C 
HETATM   11  O11 UNL     1     -35.140   4.596   4.950  1.00 20.00    -0.307 OA
ENDBRANCH   9  10
ENDBRANCH   8   9
ENDBRANCH   7   8
TORSDOF 3
