REMARK  1 active torsions:
REMARK  status: ('A' for Active; 'I' for Inactive)
REMARK    1  A    between atoms: C3_3  and  C5_5 
ROOT
HETATM    1  C1  UNL     1     -33.536   8.261   1.394  1.00 20.00     0.179 C 
HETATM    2  C2  UNL     1     -31.621   7.903   2.075  1.00 20.00     0.179 C 
HETATM    3  C3  UNL     1     -32.941   7.128   2.250  1.00 20.00     0.011 C 
HETATM    4  C4  UNL     1     -32.952   5.765   1.566  1.00 20.00     0.020 C 
HETATM    5  O6  UNL     1     -32.217   8.768   1.078  1.00 20.00    -0.389 OA
ENDROOT
BRANCH   3   6
HETATM    6  C5  UNL     1     -33.460   7.066   3.679  1.00 20.00     0.128 C 
HETATM    7 CL7  UNL     1     -35.219   6.832   3.684  1.00 20.00    -0.130 Cl
ENDBRANCH   3   6
TORSDOF 1
