REMARK  2 active torsions:
REMARK  status: ('A' for Active; 'I' for Inactive)
REMARK    1  A    between atoms: C3_3  and  C7_7 
REMARK    2  A    between atoms: C7_7  and  C8_8 
ROOT
HETATM    1  C1  UNL     1     -34.394   6.577   3.865  1.00 20.00     0.088 C 
HETATM    2  C2  UNL     1     -33.331   7.332   3.300  1.00 20.00     0.096 C 
HETATM    3  C3  UNL     1     -32.764   7.067   2.108  1.00 20.00    -0.073 C 
HETATM    4  C4  UNL     1     -33.255   5.905   1.285  1.00 20.00     0.044 C 
HETATM    5  N9  UNL     1     -35.263   5.965   4.331  1.00 20.00    -0.192 NA
ENDROOT
BRANCH   3   6
HETATM    6  C7  UNL     1     -31.655   7.890   1.479  1.00 20.00     0.038 C 
BRANCH   6   7
HETATM    7  C8  UNL     1     -32.142   9.018   0.547  1.00 20.00    -0.019 C 
HETATM    8  C5  UNL     1     -33.030  10.029   1.275  1.00 20.00     0.010 C 
HETATM    9  C6  UNL     1     -32.905   8.418  -0.637  1.00 20.00     0.010 C 
ENDBRANCH   6   7
ENDBRANCH   3   6
TORSDOF 2
