REMARK  0 active torsions:
REMARK  status: ('A' for Active; 'I' for Inactive)
ROOT
HETATM    1  C1  UNL     1     -33.777   6.126   3.097  1.00 20.00     0.084 C 
HETATM    2  C2  UNL     1     -33.925   6.725   0.710  1.00 20.00     0.048 C 
HETATM    3  C3  UNL     1     -31.994   5.363   1.572  1.00 20.00     0.048 C 
HETATM    4  C4  UNL     1     -32.997   6.470   1.896  1.00 20.00     0.118 C 
HETATM    5  N5  UNL     1     -34.393   5.851   4.041  1.00 20.00    -0.195 NA
HETATM    6 CL6  UNL     1     -32.099   7.977   2.265  1.00 20.00    -0.104 Cl
ENDROOT
TORSDOF 0
