REMARK  4 active torsions:
REMARK  status: ('A' for Active; 'I' for Inactive)
REMARK    1  A    between atoms: C2_2  and  C6_6 
REMARK    2  A    between atoms: C2_2  and  C7_7 
REMARK    3  A    between atoms: C6_6  and  C8_8 
REMARK    4  A    between atoms: C7_7  and  O10_10 
ROOT
HETATM    1  C1  UNL     1     -33.730   7.832   4.425  1.00 20.00     0.209 A 
HETATM    2  C2  UNL     1     -34.154   6.721   3.494  1.00 20.00     0.104 A 
HETATM    3  O9  UNL     1     -33.881   8.044   3.013  1.00 20.00    -0.373 OA
ENDROOT
BRANCH   2   4
HETATM    4  C6  UNL     1     -33.132   5.683   3.049  1.00 20.00     0.051 C 
BRANCH   4   5
HETATM    5  C8  UNL     1     -32.628   5.813   1.589  1.00 20.00    -0.049 C 
HETATM    6  C3  UNL     1     -33.833   5.627   0.646  1.00 20.00     0.014 C 
HETATM    7  C4  UNL     1     -31.581   4.735   1.264  1.00 20.00     0.014 C 
HETATM    8  C5  UNL     1     -32.019   7.202   1.333  1.00 20.00     0.014 C 
ENDBRANCH   4   5
ENDBRANCH   2   4
BRANCH   2   9
HETATM    9  C7  UNL     1     -35.596   6.337   3.414  1.00 20.00     0.204 C 
BRANCH   9  10
HETATM   10  O10 UNL     1     -35.930   5.487   4.510  1.00 20.00    -0.398 OA
HETATM   11  H26 UNL     1     -36.869   5.268   4.412  1.00 20.00     0.209 HD
ENDBRANCH   9  10
ENDBRANCH   2   9
TORSDOF 4
