REMARK  1 active torsions:
REMARK  status: ('A' for Active; 'I' for Inactive)
REMARK    1  A    between atoms: C7_7  and  C11_11 
ROOT
HETATM    1  C1  UNL     1     -33.997   4.882   3.066  1.00 20.00     0.127 C 
HETATM    2  C2  UNL     1     -34.632   6.003   3.856  1.00 20.00     0.078 C 
HETATM    3  C3  UNL     1     -33.915   5.025   1.562  1.00 20.00     0.079 C 
HETATM    4  C4  UNL     1     -33.995   7.366   3.609  1.00 20.00     0.008 C 
HETATM    5  C5  UNL     1     -32.842   6.034   1.179  1.00 20.00     0.013 C 
HETATM    6  C6  UNL     1     -34.306   7.922   2.219  1.00 20.00     0.006 C 
HETATM    7  C7  UNL     1     -33.339   7.488   1.102  1.00 20.00    -0.007 C 
HETATM    8  O12 UNL     1     -33.596   3.860   3.627  1.00 20.00    -0.298 OA
ENDROOT
BRANCH   7   9
HETATM    9  C11 UNL     1     -32.133   8.432   1.030  1.00 20.00    -0.048 C 
HETATM   10  C8  UNL     1     -32.622   9.875   0.834  1.00 20.00     0.015 C 
HETATM   11  C9  UNL     1     -31.238   8.032  -0.152  1.00 20.00     0.015 C 
HETATM   12  C10 UNL     1     -31.328   8.339   2.334  1.00 20.00     0.015 C 
ENDBRANCH   7   9
TORSDOF 1
