REMARK  0 active torsions:
REMARK  status: ('A' for Active; 'I' for Inactive)
ROOT
HETATM    1  C1  UNL     1     -31.266   7.151   1.695  1.00 20.00     0.028 C 
HETATM    2  C2  UNL     1     -31.803   5.763   1.349  1.00 20.00     0.017 C 
HETATM    3  C3  UNL     1     -32.398   8.110   2.047  1.00 20.00     0.188 C 
HETATM    4  C4  UNL     1     -32.696   5.221   2.456  1.00 20.00     0.140 C 
HETATM    5  O5  UNL     1     -34.808   5.872   3.976  1.00 20.00    -0.229 OA
HETATM    6  O6  UNL     1     -33.182   7.585   3.118  1.00 20.00    -0.296 OA
HETATM    7  S7  UNL     1     -34.117   6.330   2.725  1.00 20.00     0.152 S 
ENDROOT
TORSDOF 0
