REMARK  0 active torsions:
REMARK  status: ('A' for Active; 'I' for Inactive)
ROOT
HETATM    1  C1  UNL     1     -32.042   8.051   2.063  1.00 20.00     0.009 A 
HETATM    2  C2  UNL     1     -32.459   8.441   3.271  1.00 20.00     0.074 A 
HETATM    3  C3  UNL     1     -32.539   6.843   1.466  1.00 20.00     0.043 A 
HETATM    4  C4  UNL     1     -33.433   6.090   2.121  1.00 20.00     0.108 A 
HETATM    5  C5  UNL     1     -33.453   7.620   4.023  1.00 20.00     0.248 A 
HETATM    6  C6  UNL     1     -34.878   5.591   4.058  1.00 20.00     0.160 C 
HETATM    7  N7  UNL     1     -33.903   6.448   3.385  1.00 20.00    -0.309 N 
HETATM    8  O8  UNL     1     -33.812   8.010   5.133  1.00 20.00    -0.268 OA
HETATM    9 CL9  UNL     1     -34.024   4.641   1.395  1.00 20.00    -0.064 Cl
ENDROOT
TORSDOF 0
