REMARK  1 active torsions:
REMARK  status: ('A' for Active; 'I' for Inactive)
REMARK    1  A    between atoms: C3_3  and  C7_7 
ROOT
HETATM    1  C1  UNL     1     -32.863   5.614   1.984  1.00 20.00    -0.082 C 
HETATM    2  C2  UNL     1     -33.522   6.539   2.717  1.00 20.00    -0.081 C 
HETATM    3  C4  UNL     1     -32.035   5.991   0.773  1.00 20.00     0.035 C 
HETATM    4  C5  UNL     1     -33.434   8.023   2.409  1.00 20.00     0.050 C 
HETATM    5  C6  UNL     1     -32.226   7.430   0.296  1.00 20.00     0.021 C 
HETATM    6  C7  UNL     1     -32.289   8.425   1.460  1.00 20.00     0.013 C 
HETATM    7  C8  UNL     1     -32.852   4.136   2.275  1.00 20.00     0.043 C 
HETATM    8  C9  UNL     1     -34.420   6.227   3.885  1.00 20.00     0.043 C 
HETATM    9  C10 UNL     1     -30.948   8.512   2.205  1.00 20.00     0.023 C 
ENDROOT
BRANCH   6  10
HETATM   10  C3  UNL     1     -32.599   9.796   0.914  1.00 20.00     0.240 C 
HETATM   11  O11 UNL     1     -32.738  10.033  -0.281  1.00 20.00    -0.306 OA
ENDBRANCH   6  10
TORSDOF 1
