REMARK  1 active torsions:
REMARK  status: ('A' for Active; 'I' for Inactive)
REMARK    1  A    between atoms: C6_6  and  C10_10 
ROOT
HETATM    1  C1  UNL     1     -33.662   6.277   2.619  1.00 20.00     0.052 C 
HETATM    2  C2  UNL     1     -33.382   7.432   3.242  1.00 20.00    -0.080 C 
HETATM    3  C3  UNL     1     -32.847   5.824   1.465  1.00 20.00     0.149 C 
HETATM    4  C4  UNL     1     -32.279   8.358   2.795  1.00 20.00     0.039 C 
HETATM    5  C5  UNL     1     -31.643   6.646   1.060  1.00 20.00     0.088 C 
HETATM    6  C6  UNL     1     -31.839   8.135   1.341  1.00 20.00     0.000 C 
HETATM    7  C7  UNL     1     -34.159   7.875   4.448  1.00 20.00     0.043 C 
HETATM    8  O11 UNL     1     -33.125   4.767   0.902  1.00 20.00    -0.293 OA
ENDROOT
BRANCH   6   9
HETATM    9  C10 UNL     1     -32.825   8.765   0.350  1.00 20.00    -0.018 C 
HETATM   10  C8  UNL     1     -32.958  10.265   0.603  1.00 20.00     0.010 C 
HETATM   11  C9  UNL     1     -32.384   8.500  -1.088  1.00 20.00     0.010 C 
ENDBRANCH   6   9
TORSDOF 1
