REMARK  1 active torsions:
REMARK  status: ('A' for Active; 'I' for Inactive)
REMARK    1  A    between atoms: C3_3  and  C7_7 
ROOT
HETATM    1  C1  UNL     1     -33.986   5.540   3.497  1.00 20.00    -0.082 C 
HETATM    2  C2  UNL     1     -33.131   5.480   2.452  1.00 20.00    -0.081 C 
HETATM    3  C4  UNL     1     -34.725   6.812   3.858  1.00 20.00     0.035 C 
HETATM    4  C5  UNL     1     -32.814   6.697   1.601  1.00 20.00     0.050 C 
HETATM    5  C6  UNL     1     -34.638   7.919   2.807  1.00 20.00     0.021 C 
HETATM    6  C7  UNL     1     -33.231   8.048   2.214  1.00 20.00     0.013 C 
HETATM    7  C8  UNL     1     -34.294   4.392   4.422  1.00 20.00     0.043 C 
HETATM    8  C9  UNL     1     -32.419   4.234   1.995  1.00 20.00     0.043 C 
HETATM    9  C10 UNL     1     -32.212   8.519   3.264  1.00 20.00     0.023 C 
ENDROOT
BRANCH   6  10
HETATM   10  C3  UNL     1     -33.284   9.090   1.125  1.00 20.00     0.240 C 
HETATM   11  O11 UNL     1     -32.316   9.401   0.440  1.00 20.00    -0.306 OA
ENDBRANCH   6  10
TORSDOF 1
