REMARK  6 active torsions:
REMARK  status: ('A' for Active; 'I' for Inactive)
REMARK    1  A    between atoms: C1_1  and  C5_5 
REMARK    2  A    between atoms: C1_1  and  C8_8 
REMARK    3  A    between atoms: C6_6  and  O10_10 
REMARK    4  A    between atoms: C7_7  and  O11_11 
REMARK    5  A    between atoms: C8_8  and  O10_10 
REMARK    6  A    between atoms: C8_8  and  O11_11 
ROOT
HETATM    1  C8  UNL     1     -32.533   6.930   2.852  1.00 20.00     0.329 C 
ENDROOT
BRANCH   1   2
HETATM    2  C1  UNL     1     -33.653   7.319   3.810  1.00 20.00     0.181 C 
HETATM    3  O9  UNL     1     -33.472   8.124   4.723  1.00 20.00    -0.293 OA
BRANCH   2   4
HETATM    4  C5  UNL     1     -34.997   6.643   3.581  1.00 20.00     0.079 C 
HETATM    5  C2  UNL     1     -35.125   5.328   4.329  1.00 20.00     0.013 C 
ENDBRANCH   2   4
ENDBRANCH   1   2
BRANCH   1   6
HETATM    6  O10 UNL     1     -33.115   5.942   2.003  1.00 20.00    -0.355 OA
BRANCH   6   7
HETATM    7  C6  UNL     1     -32.131   5.144   1.357  1.00 20.00     0.167 C 
HETATM    8  C3  UNL     1     -32.823   4.124   0.478  1.00 20.00     0.033 C 
ENDBRANCH   6   7
ENDBRANCH   1   6
BRANCH   1   9
HETATM    9  O11 UNL     1     -32.111   8.069   2.114  1.00 20.00    -0.355 OA
BRANCH   9  10
HETATM   10  C7  UNL     1     -33.160   8.640   1.343  1.00 20.00     0.167 C 
HETATM   11  C4  UNL     1     -32.624   9.842   0.595  1.00 20.00     0.033 C 
ENDBRANCH   9  10
ENDBRANCH   1   9
TORSDOF 6
