REMARK  0 active torsions:
REMARK  status: ('A' for Active; 'I' for Inactive)
ROOT
HETATM    1  C1  UNL     1     -34.087   6.511   3.327  1.00 20.00     0.062 C 
HETATM    2  C2  UNL     1     -32.345   7.700   1.978  1.00 20.00     0.113 C 
HETATM    3  C3  UNL     1     -32.628   6.239   1.598  1.00 20.00     0.056 C 
HETATM    4  C4  UNL     1     -35.229   6.280   4.258  1.00 20.00     0.078 C 
HETATM    5  C5  UNL     1     -32.863   6.119   0.089  1.00 20.00     0.041 C 
HETATM    6  C6  UNL     1     -31.479   5.306   2.008  1.00 20.00     0.041 C 
HETATM    7  N7  UNL     1     -33.863   5.783   2.284  1.00 20.00    -0.277 NA
HETATM    8  S8  UNL     1     -33.026   7.856   3.643  1.00 20.00    -0.113 SA
ENDROOT
TORSDOF 0
