REMARK  0 active torsions:
REMARK  status: ('A' for Active; 'I' for Inactive)
ROOT
HETATM    1  C1  UNL     1     -31.644   7.723   1.324  1.00 20.00    -0.002 A 
HETATM    2  C2  UNL     1     -32.296   8.237   2.496  1.00 20.00     0.010 A 
HETATM    3  C3  UNL     1     -31.928   6.510   0.840  1.00 20.00    -0.010 A 
HETATM    4  C4  UNL     1     -33.221   7.555   3.185  1.00 20.00    -0.015 A 
HETATM    5  C5  UNL     1     -33.607   6.184   2.721  1.00 20.00     0.166 A 
HETATM    6  C6  UNL     1     -32.939   5.581   1.466  1.00 20.00     0.035 A 
HETATM    7  C7  UNL     1     -33.897   8.094   4.406  1.00 20.00     0.052 C 
HETATM    8  C8  UNL     1     -34.040   5.277   0.440  1.00 20.00     0.027 C 
HETATM    9  C9  UNL     1     -32.233   4.282   1.880  1.00 20.00     0.027 C 
HETATM   10  O10 UNL     1     -34.457   5.551   3.351  1.00 20.00    -0.292 OA
ENDROOT
TORSDOF 0
