REMARK  1 active torsions:
REMARK  status: ('A' for Active; 'I' for Inactive)
REMARK    1  A    between atoms: C1_1  and  S12_12 
ROOT
HETATM    1  C1  UNL     1     -32.058   7.976   1.280  1.00 20.00     0.066 C 
HETATM    2  C2  UNL     1     -33.491   8.330   1.507  1.00 20.00     0.074 C 
HETATM    3  C3  UNL     1     -32.881   5.779   3.522  1.00 20.00     0.042 A 
HETATM    4  C4  UNL     1     -34.051   7.114   2.227  1.00 20.00     0.029 A 
HETATM    5  C5  UNL     1     -33.895   6.926   3.779  1.00 20.00    -0.039 A 
HETATM    6  C6  UNL     1     -32.941   6.052   2.007  1.00 20.00     0.056 A 
HETATM    7  C7  UNL     1     -35.191   6.439   4.431  1.00 20.00     0.015 C 
HETATM    8  C8  UNL     1     -33.296   8.089   4.567  1.00 20.00     0.015 C 
HETATM    9  C9  UNL     1     -33.269   4.877   1.110  1.00 20.00     0.041 C 
HETATM   10  N11 UNL     1     -31.727   6.755   1.547  1.00 20.00    -0.276 NA
ENDROOT
BRANCH   1  11
HETATM   11  S12 UNL     1     -30.956   9.167   0.685  1.00 20.00    -0.119 SA
HETATM   12  C10 UNL     1     -32.081  10.575   0.539  1.00 20.00     0.097 C 
ENDBRANCH   1  11
TORSDOF 1
