REMARK  0 active torsions:
REMARK  status: ('A' for Active; 'I' for Inactive)
ROOT
HETATM    1  C1  UNL     1     -33.636   5.358   3.234  1.00 20.00     0.149 C 
HETATM    2  C2  UNL     1     -34.446   6.540   3.732  1.00 20.00     0.080 C 
HETATM    3  C3  UNL     1     -33.589   7.791   3.836  1.00 20.00     0.007 C 
HETATM    4  C4  UNL     1     -32.866   8.088   2.527  1.00 20.00     0.003 C 
HETATM    5  C5  UNL     1     -31.989   6.905   2.116  1.00 20.00     0.033 C 
HETATM    6  C6  UNL     1     -32.755   5.579   2.002  1.00 20.00     0.093 C 
HETATM    7  C7  UNL     1     -31.775   4.421   1.806  1.00 20.00     0.041 C 
HETATM    8  O8  UNL     1     -33.766   4.251   3.758  1.00 20.00    -0.296 OA
HETATM    9 CL9  UNL     1     -33.872   5.612   0.597  1.00 20.00    -0.111 Cl
ENDROOT
TORSDOF 0
