REMARK  0 active torsions:
REMARK  status: ('A' for Active; 'I' for Inactive)
ROOT
HETATM    1  C1  UNL     1     -33.627   6.724   2.950  1.00 20.00     0.061 C 
HETATM    2  C2  UNL     1     -31.522   6.819   1.606  1.00 20.00     0.107 C 
HETATM    3  C3  UNL     1     -32.042   8.137   2.173  1.00 20.00     0.114 C 
HETATM    4  C4  UNL     1     -34.746   6.156   3.755  1.00 20.00     0.078 C 
HETATM    5  C5  UNL     1     -30.925   8.957   2.804  1.00 20.00     0.035 C 
HETATM    6  N6  UNL     1     -33.071   7.863   3.204  1.00 20.00    -0.282 NA
HETATM    7  S7  UNL     1     -32.993   5.776   1.631  1.00 20.00    -0.113 SA
ENDROOT
TORSDOF 0
