REMARK  0 active torsions:
REMARK  status: ('A' for Active; 'I' for Inactive)
ROOT
HETATM    1  C1  UNL     1     -32.946   7.666   2.572  1.00 20.00     0.021 A 
HETATM    2  C2  UNL     1     -33.703   7.149   3.558  1.00 20.00     0.004 A 
HETATM    3  C3  UNL     1     -32.881   5.401   1.928  1.00 20.00     0.145 A 
HETATM    4  C4  UNL     1     -32.587   9.109   2.395  1.00 20.00     0.069 C 
HETATM    5  C5  UNL     1     -34.370   7.836   4.701  1.00 20.00     0.058 C 
HETATM    6  C6  UNL     1     -31.644   7.109   0.525  1.00 20.00     0.157 C 
HETATM    7  N7  UNL     1     -32.480   6.714   1.658  1.00 20.00    -0.340 N 
HETATM    8  S8  UNL     1     -32.544   3.995   1.096  1.00 20.00    -0.052 SA
HETATM    9  S9  UNL     1     -33.876   5.421   3.393  1.00 20.00    -0.063 SA
ENDROOT
TORSDOF 0
