REMARK  1 active torsions:
REMARK  status: ('A' for Active; 'I' for Inactive)
REMARK    1  A    between atoms: C1_1  and  C7_7 
ROOT
HETATM    1  C2  UNL     1     -31.690   9.329   0.075  1.00 20.00     0.001 C 
HETATM    2  C3  UNL     1     -33.217   5.830   1.380  1.00 20.00     0.016 C 
HETATM    3  C4  UNL     1     -31.100   7.930   0.034  1.00 20.00     0.005 C 
HETATM    4  C5  UNL     1     -32.991   9.119   0.834  1.00 20.00     0.006 C 
HETATM    5  C6  UNL     1     -31.696   5.893   1.475  1.00 20.00     0.006 C 
HETATM    6  C7  UNL     1     -33.701   7.046   2.165  1.00 20.00     0.091 C 
HETATM    7  C8  UNL     1     -31.370   7.382   1.437  1.00 20.00    -0.010 C 
HETATM    8  C9  UNL     1     -32.631   8.119   1.940  1.00 20.00     0.004 C 
ENDROOT
BRANCH   6   9
HETATM    9  C1  UNL     1     -33.819   6.723   3.626  1.00 20.00     0.177 C 
HETATM   10  O10 UNL     1     -33.598   7.686   4.411  1.00 20.00    -0.648 OA
HETATM   11  O11 UNL     1     -34.126   5.524   3.880  1.00 20.00    -0.648 OA
ENDBRANCH   6   9
TORSDOF 1
