REMARK  3 active torsions:
REMARK  status: ('A' for Active; 'I' for Inactive)
REMARK    1  A    between atoms: C3_3  and  C9_9 
REMARK    2  A    between atoms: C8_8  and  O11_11 
REMARK    3  A    between atoms: N10_10  and  O11_11 
ROOT
HETATM    1  C1  UNL     1     -33.187   3.234   5.026  1.00 20.00     0.014 C 
HETATM    2  C2  UNL     1     -34.008   3.889   4.445  1.00 20.00    -0.089 C 
HETATM    3  C8  UNL     1     -35.010   4.686   3.736  1.00 20.00     0.296 C 
ENDROOT
BRANCH   3   4
HETATM    4  O11 UNL     1     -34.694   6.068   3.817  1.00 20.00    -0.244 OA
BRANCH   4   5
HETATM    5  N10 UNL     1     -33.706   6.345   2.864  1.00 20.00    -0.142 NA
HETATM    6  C3  UNL     1     -33.365   7.600   2.880  1.00 20.00     0.043 C 
HETATM    7  C4  UNL     1     -33.994   8.596   3.837  1.00 20.00     0.069 C 
BRANCH   6   8
HETATM    8  C9  UNL     1     -32.286   8.096   1.889  1.00 20.00    -0.009 C 
HETATM    9  C5  UNL     1     -31.103   8.682   2.674  1.00 20.00     0.021 C 
HETATM   10  C6  UNL     1     -32.895   9.159   0.963  1.00 20.00     0.021 C 
HETATM   11  C7  UNL     1     -31.760   6.940   1.016  1.00 20.00     0.021 C 
ENDBRANCH   6   8
ENDBRANCH   4   5
ENDBRANCH   3   4
TORSDOF 3
