REMARK  3 active torsions:
REMARK  status: ('A' for Active; 'I' for Inactive)
REMARK    1  A    between atoms: C3_3  and  C8_8 
REMARK    2  A    between atoms: C6_6  and  C7_7 
REMARK    3  A    between atoms: C7_7  and  C8_8 
ROOT
HETATM    1  C1  UNL     1     -35.207   6.223   4.227  1.00 20.00     0.197 C 
HETATM    2  C2  UNL     1     -34.565   7.463   4.788  1.00 20.00     0.197 C 
HETATM    3  C3  UNL     1     -33.062   6.368   3.510  1.00 20.00     0.263 C 
HETATM    4  O9  UNL     1     -34.093   5.424   3.828  1.00 20.00    -0.359 OA
HETATM    5  O10 UNL     1     -33.466   7.685   3.906  1.00 20.00    -0.359 OA
ENDROOT
BRANCH   3   6
HETATM    6  C8  UNL     1     -32.789   6.352   2.019  1.00 20.00     0.037 C 
HETATM    7  C5  UNL     1     -32.841   4.914   1.500  1.00 20.00     0.015 C 
BRANCH   6   8
HETATM    8  C7  UNL     1     -31.438   7.034   1.728  1.00 20.00     0.009 C 
BRANCH   8   9
HETATM    9  C6  UNL     1     -31.502   8.562   1.786  1.00 20.00    -0.004 C 
HETATM   10  C4  UNL     1     -32.435   9.118   0.720  1.00 20.00     0.005 C 
ENDBRANCH   8   9
ENDBRANCH   6   8
ENDBRANCH   3   6
TORSDOF 3
