REMARK  2 active torsions:
REMARK  status: ('A' for Active; 'I' for Inactive)
REMARK    1  A    between atoms: C3_3  and  C6_6 
REMARK    2  A    between atoms: C6_6  and  C7_7 
ROOT
HETATM    1  C1  UNL     1     -32.896   9.726  -0.666  1.00 20.00     0.281 C 
HETATM    2  C2  UNL     1     -32.283  10.749   0.277  1.00 20.00     0.106 C 
HETATM    3  C3  UNL     1     -32.189   8.215   0.992  1.00 20.00     0.282 C 
HETATM    4  N8  UNL     1     -33.329   8.575   0.138  1.00 20.00     0.098 N 
HETATM    5  S9  UNL     1     -31.306   9.749   1.421  1.00 20.00    -0.132 SA
HETATM    6  H24 UNL     1     -34.105   8.874   0.730  1.00 20.00     0.317 HD
ENDROOT
BRANCH   3   7
HETATM    7  C6  UNL     1     -32.650   7.489   2.248  1.00 20.00     0.050 C 
BRANCH   7   8
HETATM    8  C7  UNL     1     -33.388   6.170   1.960  1.00 20.00    -0.020 C 
HETATM    9  C4  UNL     1     -32.518   5.170   1.197  1.00 20.00     0.009 C 
HETATM   10  C5  UNL     1     -33.866   5.545   3.273  1.00 20.00     0.009 C 
ENDBRANCH   7   8
ENDBRANCH   3   7
TORSDOF 2
