REMARK  2 active torsions:
REMARK  status: ('A' for Active; 'I' for Inactive)
REMARK    1  A    between atoms: C3_3  and  C6_6 
REMARK    2  A    between atoms: C6_6  and  C7_7 
ROOT
HETATM    1  C1  UNL     1     -33.076   5.603   1.681  1.00 20.00     0.281 C 
HETATM    2  C2  UNL     1     -33.698   5.744   3.061  1.00 20.00     0.106 C 
HETATM    3  C3  UNL     1     -32.411   7.834   2.100  1.00 20.00     0.282 C 
HETATM    4  N8  UNL     1     -31.943   6.536   1.592  1.00 20.00     0.098 N 
HETATM    5  S9  UNL     1     -33.684   7.524   3.362  1.00 20.00    -0.132 SA
HETATM    6  H24 UNL     1     -31.158   6.200   2.145  1.00 20.00     0.317 HD
ENDROOT
BRANCH   3   7
HETATM    7  C6  UNL     1     -32.977   8.690   0.972  1.00 20.00     0.050 C 
BRANCH   7   8
HETATM    8  C7  UNL     1     -31.900   9.427   0.158  1.00 20.00    -0.020 C 
HETATM    9  C4  UNL     1     -30.913   8.466  -0.506  1.00 20.00     0.009 C 
HETATM   10  C5  UNL     1     -32.562  10.305  -0.906  1.00 20.00     0.009 C 
ENDBRANCH   7   8
ENDBRANCH   3   7
TORSDOF 2
