REMARK  3 active torsions:
REMARK  status: ('A' for Active; 'I' for Inactive)
REMARK    1  A    between atoms: C4_4  and  C11_11 
REMARK    2  A    between atoms: C5_5  and  C9_9 
REMARK    3  A    between atoms: C8_8  and  C11_11 
ROOT
HETATM    1  C1  UNL     1     -34.433   7.785   3.981  1.00 20.00    -0.030 C 
HETATM    2  C2  UNL     1     -33.471   8.257   3.177  1.00 20.00    -0.025 C 
HETATM    3  C6  UNL     1     -34.808   6.337   4.051  1.00 20.00     0.027 C 
HETATM    4  C7  UNL     1     -33.763   5.424   3.409  1.00 20.00     0.016 C 
HETATM    5  C8  UNL     1     -32.683   7.394   2.220  1.00 20.00     0.025 C 
HETATM    6  C9  UNL     1     -33.290   5.982   2.064  1.00 20.00     0.055 C 
ENDROOT
BRANCH   5   7
HETATM    7  C11 UNL     1     -32.581   8.088   0.857  1.00 20.00     0.011 C 
HETATM    8  C10 UNL     1     -31.451   7.477   0.032  1.00 20.00     0.015 C 
BRANCH   7   9
HETATM    9  C4  UNL     1     -32.355   9.564   1.045  1.00 20.00    -0.032 C 
HETATM   10  C3  UNL     1     -33.199  10.509   0.613  1.00 20.00     0.007 C 
ENDBRANCH   7   9
ENDBRANCH   5   7
BRANCH   6  11
HETATM   11  C5  UNL     1     -32.279   5.035   1.489  1.00 20.00     0.236 C 
HETATM   12  O12 UNL     1     -32.576   4.069   0.794  1.00 20.00    -0.306 OA
ENDBRANCH   6  11
TORSDOF 3
