REMARK  3 active torsions:
REMARK  status: ('A' for Active; 'I' for Inactive)
REMARK    1  A    between atoms: C3_3  and  C10_10 
REMARK    2  A    between atoms: C7_7  and  C11_11 
REMARK    3  A    between atoms: C10_10  and  C11_11 
ROOT
HETATM    1  C1  UNL     1     -33.059  10.267   1.931  1.00 20.00    -0.024 C 
HETATM    2  C2  UNL     1     -32.869  10.077   0.614  1.00 20.00    -0.087 C 
HETATM    3  C4  UNL     1     -32.570   9.321   2.989  1.00 20.00     0.032 C 
HETATM    4  C5  UNL     1     -32.110   8.889   0.078  1.00 20.00     0.034 C 
HETATM    5  C6  UNL     1     -31.345   8.110   1.155  1.00 20.00     0.009 C 
HETATM    6  C7  UNL     1     -32.150   7.943   2.450  1.00 20.00    -0.007 C 
HETATM    7  C8  UNL     1     -33.404  11.034  -0.410  1.00 20.00     0.043 C 
ENDROOT
BRANCH   6   8
HETATM    8  C11 UNL     1     -33.359   7.023   2.250  1.00 20.00    -0.008 C 
HETATM    9  C9  UNL     1     -32.902   5.686   1.659  1.00 20.00     0.011 C 
BRANCH   8  10
HETATM   10  C10 UNL     1     -34.097   6.822   3.582  1.00 20.00     0.074 C 
BRANCH  10  11
HETATM   11  C3  UNL     1     -35.011   5.618   3.605  1.00 20.00     0.231 C 
HETATM   12  O12 UNL     1     -34.944   4.700   4.416  1.00 20.00    -0.307 OA
ENDBRANCH  10  11
ENDBRANCH   8  10
ENDBRANCH   6   8
TORSDOF 3
