REMARK  1 active torsions:
REMARK  status: ('A' for Active; 'I' for Inactive)
REMARK    1  A    between atoms: C2_2  and  O3_3 
ROOT
HETATM    1  C2  UNL     1     -34.184   7.043   3.353  1.00 20.00     0.524 C 
HETATM    2  F4  UNL     1     -33.058   7.431   2.717  1.00 20.00    -0.144 F 
HETATM    3  F5  UNL     1     -35.246   7.398   2.599  1.00 20.00    -0.144 F 
HETATM    4  F6  UNL     1     -34.247   7.680   4.540  1.00 20.00    -0.144 F 
ENDROOT
BRANCH   1   5
HETATM    5  O3  UNL     1     -34.150   5.638   3.539  1.00 20.00    -0.303 OA
HETATM    6  C1  UNL     1     -35.308   5.156   4.205  1.00 20.00     0.211 C 
ENDBRANCH   1   5
TORSDOF 1
