REMARK  0 active torsions:
REMARK  status: ('A' for Active; 'I' for Inactive)
ROOT
HETATM    1  C1  UNL     1     -33.038   7.240   2.432  1.00 20.00    -0.014 A 
HETATM    2  C2  UNL     1     -33.410   5.988   2.129  1.00 20.00    -0.070 A 
HETATM    3  C3  UNL     1     -33.842   7.624   3.608  1.00 20.00     0.156 A 
HETATM    4  C4  UNL     1     -34.803   6.545   4.007  1.00 20.00     0.092 A 
HETATM    5  C5  UNL     1     -34.456   5.402   3.050  1.00 20.00     0.018 A 
HETATM    6  C6  UNL     1     -32.058   8.163   1.815  1.00 20.00     0.052 C 
HETATM    7  C7  UNL     1     -32.911   5.167   0.985  1.00 20.00     0.044 C 
HETATM    8  C8  UNL     1     -33.956   4.174   3.807  1.00 20.00     0.015 C 
HETATM    9  O9  UNL     1     -33.744   8.705   4.171  1.00 20.00    -0.293 OA
ENDROOT
TORSDOF 0
