REMARK  2 active torsions:
REMARK  status: ('A' for Active; 'I' for Inactive)
REMARK    1  A    between atoms: C1_1  and  C5_5 
REMARK    2  A    between atoms: C2_2  and  C6_6 
ROOT
HETATM    1  C1  UNL     1     -32.584   7.789   1.175  1.00 20.00    -0.063 C 
HETATM    2  C2  UNL     1     -32.437   8.799   0.543  1.00 20.00    -0.063 C 
ENDROOT
BRANCH   1   3
HETATM    3  C5  UNL     1     -32.759   6.584   1.928  1.00 20.00     0.141 A 
HETATM    4  C3  UNL     1     -31.562   5.699   2.179  1.00 20.00     0.221 A 
HETATM    5  O9  UNL     1     -32.520   5.400   1.155  1.00 20.00    -0.362 OA
HETATM    6  C7  UNL     1     -33.952   6.485   2.822  1.00 20.00     0.063 C 
ENDBRANCH   1   3
BRANCH   2   7
HETATM    7  C6  UNL     1     -32.258  10.030  -0.225  1.00 20.00     0.141 A 
HETATM    8  C4  UNL     1     -32.602  11.326   0.438  1.00 20.00     0.221 A 
HETATM    9  O10 UNL     1     -33.498  10.682  -0.478  1.00 20.00    -0.362 OA
HETATM   10  C8  UNL     1     -31.331   9.971  -1.377  1.00 20.00     0.063 C 
ENDBRANCH   2   7
TORSDOF 2
