REMARK  1 active torsions:
REMARK  status: ('A' for Active; 'I' for Inactive)
REMARK    1  A    between atoms: C4_4  and  C11_11 
ROOT
HETATM    1  C1  UNL     1     -34.333   6.569   3.956  1.00 20.00     0.053 C 
HETATM    2  C2  UNL     1     -33.955   5.445   3.338  1.00 20.00    -0.072 C 
HETATM    3  C3  UNL     1     -33.858   7.678   3.124  1.00 20.00     0.155 C 
HETATM    4  C4  UNL     1     -33.306   7.185   1.809  1.00 20.00     0.075 C 
HETATM    5  C5  UNL     1     -33.147   5.656   2.063  1.00 20.00    -0.013 C 
HETATM    6  C6  UNL     1     -34.255   4.078   3.861  1.00 20.00     0.044 C 
HETATM    7  C7  UNL     1     -33.734   4.876   0.877  1.00 20.00     0.020 C 
HETATM    8  C8  UNL     1     -31.692   5.212   2.291  1.00 20.00     0.020 C 
HETATM    9  O12 UNL     1     -33.955   8.849   3.462  1.00 20.00    -0.293 OA
ENDROOT
BRANCH   4  10
HETATM   10  C11 UNL     1     -32.064   7.956   1.391  1.00 20.00    -0.010 C 
HETATM   11  C9  UNL     1     -32.445   9.281   0.729  1.00 20.00     0.010 C 
HETATM   12  C10 UNL     1     -31.149   8.205   2.591  1.00 20.00     0.010 C 
ENDBRANCH   4  10
TORSDOF 1
