REMARK  4 active torsions:
REMARK  status: ('A' for Active; 'I' for Inactive)
REMARK    1  A    between atoms: C2_2  and  C7_7 
REMARK    2  A    between atoms: C7_7  and  C9_9 
REMARK    3  A    between atoms: C8_8  and  C9_9 
REMARK    4  A    between atoms: C9_9  and  O10_10 
ROOT
HETATM    1  C6  UNL     1     -35.556   6.146   4.296  1.00 20.00     0.047 C 
HETATM    2  C9  UNL     1     -34.428   6.266   3.252  1.00 20.00     0.064 C 
ENDROOT
BRANCH   2   3
HETATM    3  C7  UNL     1     -33.427   5.060   3.383  1.00 20.00     0.037 C 
HETATM    4  C3  UNL     1     -32.711   4.701   2.071  1.00 20.00     0.017 C 
BRANCH   3   5
HETATM    5  C2  UNL     1     -34.099   3.799   3.885  1.00 20.00    -0.030 C 
HETATM    6  C1  UNL     1     -33.761   3.166   5.015  1.00 20.00     0.007 C 
ENDBRANCH   3   5
ENDBRANCH   2   3
BRANCH   2   7
HETATM    7  C8  UNL     1     -33.711   7.660   3.343  1.00 20.00     0.012 C 
HETATM    8  C4  UNL     1     -33.163   7.971   4.747  1.00 20.00     0.012 C 
HETATM    9  C5  UNL     1     -32.585   7.849   2.321  1.00 20.00     0.012 C 
ENDBRANCH   2   7
BRANCH   2  10
HETATM   10  O10 UNL     1     -35.046   6.205   1.956  1.00 20.00    -0.389 OA
HETATM   11  H28 UNL     1     -35.660   6.950   1.921  1.00 20.00     0.210 HD
ENDBRANCH   2  10
TORSDOF 4
