REMARK  0 active torsions:
REMARK  status: ('A' for Active; 'I' for Inactive)
ROOT
HETATM    1  C1  UNL     1     -32.978   7.174   2.494  1.00 20.00    -0.002 A 
HETATM    2  C2  UNL     1     -33.826   7.477   3.492  1.00 20.00    -0.064 A 
HETATM    3  C3  UNL     1     -33.076   5.751   2.098  1.00 20.00     0.215 A 
HETATM    4  C4  UNL     1     -34.696   6.377   4.021  1.00 20.00     0.117 A 
HETATM    5  C5  UNL     1     -32.004   8.044   1.777  1.00 20.00     0.053 C 
HETATM    6  C6  UNL     1     -33.995   8.817   4.140  1.00 20.00     0.045 C 
HETATM    7  O7  UNL     1     -32.416   5.223   1.217  1.00 20.00    -0.280 OA
HETATM    8  S8  UNL     1     -34.270   4.905   3.058  1.00 20.00    -0.083 SA
ENDROOT
TORSDOF 0
