REMARK  2 active torsions:
REMARK  status: ('A' for Active; 'I' for Inactive)
REMARK    1  A    between atoms: C1_1  and  C5_5 
REMARK    2  A    between atoms: C2_2  and  C6_6 
ROOT
HETATM    1  C1  UNL     1     -33.354   7.512   2.264  1.00 20.00    -0.063 C 
HETATM    2  C2  UNL     1     -32.841   8.262   1.479  1.00 20.00    -0.063 C 
ENDROOT
BRANCH   1   3
HETATM    3  C5  UNL     1     -33.965   6.618   3.200  1.00 20.00     0.141 A 
HETATM    4  C3  UNL     1     -34.375   5.241   2.735  1.00 20.00     0.221 A 
HETATM    5  O9  UNL     1     -33.164   5.459   3.472  1.00 20.00    -0.362 OA
HETATM    6  C7  UNL     1     -34.600   7.207   4.417  1.00 20.00     0.063 C 
ENDBRANCH   1   3
BRANCH   2   7
HETATM    7  C6  UNL     1     -32.217   9.176   0.523  1.00 20.00     0.141 A 
HETATM    8  C4  UNL     1     -33.084   9.783  -0.534  1.00 20.00     0.221 A 
HETATM    9  O10 UNL     1     -32.720  10.502   0.652  1.00 20.00    -0.362 OA
HETATM   10  C8  UNL     1     -30.751   9.072   0.357  1.00 20.00     0.063 C 
ENDBRANCH   2   7
TORSDOF 2
