REMARK  2 active torsions:
REMARK  status: ('A' for Active; 'I' for Inactive)
REMARK    1  A    between atoms: C2_2  and  C3_3 
REMARK    2  A    between atoms: C3_3  and  N4_4 
ROOT
HETATM    1  C1  UNL     1     -33.267   7.484   4.388  1.00 20.00     0.055 C 
HETATM    2  C3  UNL     1     -33.869   6.503   3.376  1.00 20.00     0.145 C 
HETATM    3 CL7  UNL     1     -35.508   7.119   2.932  1.00 20.00    -0.097 Cl
ENDROOT
BRANCH   2   4
HETATM    4  C2  UNL     1     -33.048   6.407   2.080  1.00 20.00     0.160 C 
HETATM    5 CL6  UNL     1     -32.431   7.985   1.514  1.00 20.00    -0.127 Cl
ENDBRANCH   2   4
BRANCH   2   6
HETATM    6  N4  UNL     1     -34.085   5.119   3.936  1.00 20.00    -0.036 NA
HETATM    7  O5  UNL     1     -35.195   4.950   4.454  1.00 20.00    -0.099 OA
ENDBRANCH   2   6
TORSDOF 2
