REMARK  0 active torsions:
REMARK  status: ('A' for Active; 'I' for Inactive)
ROOT
HETATM    1  C1  UNL     1     -35.224   5.707   4.153  1.00 20.00     0.002 A 
HETATM    2  C2  UNL     1     -34.382   4.950   3.330  1.00 20.00     0.016 A 
HETATM    3  C3  UNL     1     -35.079   7.107   4.253  1.00 20.00     0.007 A 
HETATM    4  C4  UNL     1     -33.387   5.627   2.658  1.00 20.00     0.017 A 
HETATM    5  C5  UNL     1     -34.061   7.769   3.559  1.00 20.00    -0.051 A 
HETATM    6  C6  UNL     1     -33.201   6.992   2.801  1.00 20.00    -0.033 A 
HETATM    7  C7  UNL     1     -32.459   5.179   1.625  1.00 20.00     0.160 C 
HETATM    8  C8  UNL     1     -33.952   9.269   3.499  1.00 20.00     0.039 C 
HETATM    9  C9  UNL     1     -31.786   6.396   1.005  1.00 20.00     0.093 C 
HETATM   10  C10 UNL     1     -32.701   9.784   2.754  1.00 20.00     0.005 C 
HETATM   11  C11 UNL     1     -32.305   8.910   1.548  1.00 20.00     0.010 C 
HETATM   12  C12 UNL     1     -32.015   7.500   2.047  1.00 20.00     0.027 C 
HETATM   13  O13 UNL     1     -32.317   4.019   1.285  1.00 20.00    -0.292 OA
ENDROOT
TORSDOF 0
