REMARK  1 active torsions:
REMARK  status: ('A' for Active; 'I' for Inactive)
REMARK    1  A    between atoms: C6_6  and  O11_11 
ROOT
HETATM    1  C1  UNL     1     -33.831   7.813   3.316  1.00 20.00     0.011 A 
HETATM    2  C2  UNL     1     -34.702   7.097   4.140  1.00 20.00     0.037 A 
HETATM    3  C3  UNL     1     -33.856   4.987   3.278  1.00 20.00     0.044 A 
HETATM    4  C4  UNL     1     -32.989   7.107   2.471  1.00 20.00    -0.048 A 
HETATM    5  C5  UNL     1     -33.004   5.705   2.455  1.00 20.00    -0.049 A 
HETATM    6  C6  UNL     1     -34.715   5.694   4.121  1.00 20.00     0.066 A 
HETATM    7  C7  UNL     1     -31.981   5.168   1.504  1.00 20.00     0.040 C 
HETATM    8  C8  UNL     1     -31.721   6.400   0.626  1.00 20.00     0.014 C 
HETATM    9  C9  UNL     1     -31.941   7.632   1.528  1.00 20.00     0.015 C 
HETATM   10  C10 UNL     1     -32.346   8.863   0.732  1.00 20.00     0.015 C 
ENDROOT
BRANCH   6  11
HETATM   11  O11 UNL     1     -35.569   5.017   4.938  1.00 20.00    -0.361 OA
HETATM   12  H23 UNL     1     -36.094   5.640   5.464  1.00 20.00     0.217 HD
ENDBRANCH   6  11
TORSDOF 1
