REMARK  0 active torsions:
REMARK  status: ('A' for Active; 'I' for Inactive)
ROOT
HETATM    1  C1  UNL     1     -33.688   3.874   4.103  1.00 20.00     0.095 C 
HETATM    2  C2  UNL     1     -32.356   8.810   1.455  1.00 20.00     0.095 C 
HETATM    3  C3  UNL     1     -34.553   6.129   3.922  1.00 20.00    -0.007 C 
HETATM    4  C4  UNL     1     -31.600   6.510   1.497  1.00 20.00    -0.007 C 
HETATM    5  C5  UNL     1     -33.936   5.071   3.388  1.00 20.00     0.024 C 
HETATM    6  C6  UNL     1     -32.580   7.416   1.566  1.00 20.00     0.024 C 
HETATM    7  C7  UNL     1     -34.741   7.233   2.935  1.00 20.00     0.039 C 
HETATM    8  C8  UNL     1     -32.115   5.111   1.582  1.00 20.00     0.039 C 
HETATM    9  C9  UNL     1     -33.600   5.282   1.937  1.00 20.00     0.042 C 
HETATM   10  C10 UNL     1     -33.934   6.779   1.710  1.00 20.00     0.042 C 
HETATM   11  N11 UNL     1     -33.485   2.894   4.690  1.00 20.00    -0.192 NA
HETATM   12  N12 UNL     1     -32.173   9.952   1.364  1.00 20.00    -0.192 NA
ENDROOT
TORSDOF 0
