REMARK  0 active torsions:
REMARK  status: ('A' for Active; 'I' for Inactive)
ROOT
HETATM    1  C1  UNL     1     -33.860   5.069   3.375  1.00 20.00     0.219 C 
HETATM    2  C2  UNL     1     -34.967   6.085   3.596  1.00 20.00     0.103 C 
HETATM    3  C3  UNL     1     -34.477   7.373   4.249  1.00 20.00     0.009 C 
HETATM    4  C4  UNL     1     -33.835   8.396   3.306  1.00 20.00     0.001 C 
HETATM    5  C5  UNL     1     -32.430   8.021   2.832  1.00 20.00     0.002 C 
HETATM    6  C6  UNL     1     -32.369   7.414   1.429  1.00 20.00     0.020 C 
HETATM    7  C7  UNL     1     -33.282   6.214   1.194  1.00 20.00     0.125 C 
HETATM    8  C8  UNL     1     -32.013   4.233   1.975  1.00 20.00     0.152 C 
HETATM    9  N9  UNL     1     -33.111   5.166   2.203  1.00 20.00    -0.356 N 
HETATM   10  O10 UNL     1     -33.663   4.213   4.244  1.00 20.00    -0.273 OA
ENDROOT
TORSDOF 0
