REMARK  1 active torsions:
REMARK  status: ('A' for Active; 'I' for Inactive)
REMARK       I    between atoms: C1_1  and  N3_3 
REMARK    1  A    between atoms: C1_1  and  S5_5 
ROOT
HETATM    1  C1  UNL     1     -33.027   6.477   2.181  1.00 20.00     0.276 C 
HETATM    2  C2  UNL     1     -34.795   5.915   3.832  1.00 20.00     0.150 C 
HETATM    3  N3  UNL     1     -33.920   6.847   3.160  1.00 20.00    -0.356 N 
HETATM    4  O4  UNL     1     -32.830   5.356   1.735  1.00 20.00    -0.261 OA
HETATM    5  H9  UNL     1     -33.960   7.824   3.432  1.00 20.00     0.162 HD
ENDROOT
BRANCH   1   6
HETATM    6  S5  UNL     1     -32.135   7.872   1.597  1.00 20.00    -0.082 SA
HETATM    7  H10 UNL     1     -31.383   7.219   0.699  1.00 20.00     0.112 HD
ENDBRANCH   1   6
TORSDOF 1
