REMARK  2 active torsions:
REMARK  status: ('A' for Active; 'I' for Inactive)
REMARK    1  A    between atoms: C2_2  and  C3_3 
REMARK    2  A    between atoms: C3_3  and  O10_10 
ROOT
HETATM    1  C1  UNL     1     -32.336   8.341   1.358  1.00 20.00    -0.074 C 
HETATM    2  C2  UNL     1     -32.727   7.938   2.571  1.00 20.00     0.085 C 
HETATM    3  C4  UNL     1     -31.706   9.672   1.062  1.00 20.00     0.034 C 
HETATM    4  C5  UNL     1     -32.467   7.524   0.104  1.00 20.00     0.034 C 
HETATM    5  C6  UNL     1     -31.749   9.742  -0.460  1.00 20.00     0.005 C 
HETATM    6  C7  UNL     1     -31.609   8.290  -0.896  1.00 20.00     0.005 C 
ENDROOT
BRANCH   2   7
HETATM    7  C3  UNL     1     -33.336   6.604   2.746  1.00 20.00     0.282 C 
HETATM    8  O9  UNL     1     -33.093   5.620   2.066  1.00 20.00    -0.260 OA
BRANCH   7   9
HETATM    9  O10 UNL     1     -34.203   6.682   3.792  1.00 20.00    -0.323 OA
HETATM   10  C8  UNL     1     -34.892   5.469   4.111  1.00 20.00     0.213 C 
ENDBRANCH   7   9
ENDBRANCH   2   7
TORSDOF 2
