REMARK  2 active torsions:
REMARK  status: ('A' for Active; 'I' for Inactive)
REMARK    1  A    between atoms: C6_6  and  C11_11 
REMARK    2  A    between atoms: C11_11  and  O12_12 
ROOT
HETATM    1  C1  UNL     1     -32.687   4.811   1.902  1.00 20.00     0.005 C 
HETATM    2  C2  UNL     1     -31.383   5.241   1.217  1.00 20.00     0.006 C 
HETATM    3  C3  UNL     1     -33.186   6.025  -0.075  1.00 20.00     0.010 C 
HETATM    4  C4  UNL     1     -33.720   5.806   1.343  1.00 20.00    -0.007 C 
HETATM    5  C5  UNL     1     -31.809   6.489   0.421  1.00 20.00    -0.006 C 
HETATM    6  C6  UNL     1     -33.548   7.226   1.946  1.00 20.00     0.026 C 
HETATM    7  C7  UNL     1     -32.165   7.685   1.369  1.00 20.00    -0.038 C 
HETATM    8  C8  UNL     1     -31.080   7.973   2.418  1.00 20.00     0.015 C 
HETATM    9  C9  UNL     1     -32.341   8.977   0.541  1.00 20.00     0.015 C 
ENDROOT
BRANCH   6  10
HETATM   10  C11 UNL     1     -33.742   7.300   3.454  1.00 20.00     0.119 C 
HETATM   11  C10 UNL     1     -35.146   6.885   3.865  1.00 20.00     0.040 C 
BRANCH  10  12
HETATM   12  O12 UNL     1     -33.500   8.634   3.891  1.00 20.00    -0.396 OA
HETATM   13  H32 UNL     1     -33.633   8.640   4.852  1.00 20.00     0.210 HD
ENDBRANCH  10  12
ENDBRANCH   6  10
TORSDOF 2
