REMARK  2 active torsions:
REMARK  status: ('A' for Active; 'I' for Inactive)
REMARK    1  A    between atoms: C3_3  and  C5_5 
REMARK    2  A    between atoms: C5_5  and  C6_6 
ROOT
HETATM    1  C1  UNL     1     -33.648   7.537   4.253  1.00 20.00     0.202 C 
HETATM    2  C2  UNL     1     -33.948   6.104   3.886  1.00 20.00     0.144 C 
HETATM    3  C3  UNL     1     -32.733   7.054   2.237  1.00 20.00     0.261 C 
HETATM    4  C4  UNL     1     -35.344   5.652   4.259  1.00 20.00     0.042 C 
HETATM    5  O7  UNL     1     -32.550   7.870   3.402  1.00 20.00    -0.359 OA
HETATM    6  O8  UNL     1     -33.779   6.101   2.466  1.00 20.00    -0.354 OA
ENDROOT
BRANCH   3   7
HETATM    7  C5  UNL     1     -33.097   7.923   1.049  1.00 20.00     0.075 C 
BRANCH   7   8
HETATM    8  C6  UNL     1     -32.042   8.973   0.712  1.00 20.00     0.119 C 
HETATM    9 CL9  UNL     1     -32.523   9.979  -0.673  1.00 20.00    -0.130 Cl
ENDBRANCH   7   8
ENDBRANCH   3   7
TORSDOF 2
