REMARK  0 active torsions:
REMARK  status: ('A' for Active; 'I' for Inactive)
ROOT
HETATM    1  C1  UNL     1     -32.459   7.677   1.846  1.00 20.00     0.130 C 
HETATM    2  C2  UNL     1     -32.542   8.010   3.314  1.00 20.00     0.079 C 
HETATM    3  C3  UNL     1     -33.879   7.596   3.924  1.00 20.00     0.016 C 
HETATM    4  C4  UNL     1     -33.586   5.515   2.487  1.00 20.00     0.020 C 
HETATM    5  C5  UNL     1     -32.657   6.213   1.478  1.00 20.00     0.052 C 
HETATM    6  C6  UNL     1     -34.606   6.439   3.194  1.00 20.00    -0.047 C 
HETATM    7  C7  UNL     1     -33.135   6.054   0.037  1.00 20.00     0.018 C 
HETATM    8  C8  UNL     1     -35.394   5.607   4.226  1.00 20.00     0.015 C 
HETATM    9  C9  UNL     1     -35.627   7.014   2.192  1.00 20.00     0.015 C 
HETATM   10  O10 UNL     1     -32.167   8.535   1.014  1.00 20.00    -0.298 OA
ENDROOT
TORSDOF 0
