REMARK  3 active torsions:
REMARK  status: ('A' for Active; 'I' for Inactive)
REMARK    1  A    between atoms: C1_1  and  C4_4 
REMARK    2  A    between atoms: C2_2  and  C7_7 
REMARK    3  A    between atoms: C7_7  and  O8_8 
ROOT
HETATM    1  C1  UNL     1     -33.290   7.351   2.994  1.00 20.00    -0.070 C 
HETATM    2  C2  UNL     1     -34.013   6.604   3.597  1.00 20.00    -0.070 C 
ENDROOT
BRANCH   2   3
HETATM    3  C7  UNL     1     -34.894   5.691   4.335  1.00 20.00     0.193 C 
HETATM    4  C6  UNL     1     -34.438   4.248   4.185  1.00 20.00     0.053 C 
BRANCH   3   5
HETATM    5  O8  UNL     1     -36.225   5.788   3.836  1.00 20.00    -0.384 OA
HETATM    6  H18 UNL     1     -36.761   5.169   4.355  1.00 20.00     0.211 HD
ENDBRANCH   3   5
ENDBRANCH   2   3
BRANCH   1   7
HETATM    7  C4  UNL     1     -32.437   8.238   2.273  1.00 20.00    -0.018 C 
HETATM    8  C3  UNL     1     -31.260   8.598   2.807  1.00 20.00     0.028 C 
HETATM    9  C5  UNL     1     -32.883   8.744   0.933  1.00 20.00     0.057 C 
ENDBRANCH   1   7
TORSDOF 3
