REMARK  4 active torsions:
REMARK  status: ('A' for Active; 'I' for Inactive)
REMARK    1  A    between atoms: C1_1  and  C4_4 
REMARK    2  A    between atoms: C2_2  and  C7_7 
REMARK    3  A    between atoms: C7_7  and  C8_8 
REMARK    4  A    between atoms: C8_8  and  O9_9 
ROOT
HETATM    1  C1  UNL     1     -33.413   6.784   2.648  1.00 20.00    -0.072 C 
HETATM    2  C2  UNL     1     -32.799   7.535   1.940  1.00 20.00    -0.099 C 
ENDROOT
BRANCH   2   3
HETATM    3  C7  UNL     1     -32.047   8.456   1.072  1.00 20.00     0.125 C 
BRANCH   3   4
HETATM    4  C8  UNL     1     -32.863   9.710   0.753  1.00 20.00     0.125 C 
HETATM    5  C6  UNL     1     -32.300  10.439  -0.460  1.00 20.00     0.040 C 
BRANCH   4   6
HETATM    6  O9  UNL     1     -32.810  10.590   1.876  1.00 20.00    -0.395 OA
HETATM    7  H21 UNL     1     -33.349  11.362   1.646  1.00 20.00     0.210 HD
ENDBRANCH   4   6
ENDBRANCH   3   4
ENDBRANCH   2   3
BRANCH   1   8
HETATM    8  C4  UNL     1     -34.139   5.889   3.489  1.00 20.00    -0.018 C 
HETATM    9  C3  UNL     1     -35.437   6.125   3.733  1.00 20.00     0.028 C 
HETATM   10  C5  UNL     1     -33.428   4.706   4.078  1.00 20.00     0.057 C 
ENDBRANCH   1   8
TORSDOF 4
