REMARK  1 active torsions:
REMARK  status: ('A' for Active; 'I' for Inactive)
REMARK    1  A    between atoms: C3_3  and  C6_6 
ROOT
HETATM    1  C1  UNL     1     -33.678   7.640   4.170  1.00 20.00    -0.024 C 
HETATM    2  C2  UNL     1     -33.195   7.245   2.977  1.00 20.00    -0.076 C 
HETATM    3  C4  UNL     1     -34.740   6.906   4.932  1.00 20.00     0.028 C 
HETATM    4  C5  UNL     1     -35.446   5.835   4.099  1.00 20.00     0.009 C 
HETATM    5  C6  UNL     1     -33.678   5.969   2.315  1.00 20.00     0.079 C 
HETATM    6  C7  UNL     1     -34.456   5.015   3.257  1.00 20.00    -0.004 C 
HETATM    7  C8  UNL     1     -32.218   8.107   2.225  1.00 20.00     0.044 C 
HETATM    8  C9  UNL     1     -33.563   4.157   4.167  1.00 20.00     0.011 C 
ENDROOT
BRANCH   5   9
HETATM    9  C3  UNL     1     -32.530   5.251   1.663  1.00 20.00     0.240 C 
HETATM   10  O10 UNL     1     -32.645   4.579   0.643  1.00 20.00    -0.306 OA
ENDBRANCH   5   9
TORSDOF 1
