REMARK  0 active torsions:
REMARK  status: ('A' for Active; 'I' for Inactive)
ROOT
HETATM    1  C1  UNL     1     -32.827   7.908   2.826  1.00 20.00     0.047 C 
HETATM    2  C2  UNL     1     -32.340   7.208   1.796  1.00 20.00    -0.014 C 
HETATM    3  C3  UNL     1     -33.715   7.264   3.826  1.00 20.00     0.152 C 
HETATM    4  C4  UNL     1     -33.936   5.321   2.264  1.00 20.00     0.025 C 
HETATM    5  C5  UNL     1     -33.927   5.758   3.733  1.00 20.00     0.056 C 
HETATM    6  C6  UNL     1     -32.665   5.760   1.500  1.00 20.00    -0.029 C 
HETATM    7  C7  UNL     1     -35.228   5.346   4.418  1.00 20.00     0.018 C 
HETATM    8  C8  UNL     1     -32.921   5.593  -0.009  1.00 20.00     0.019 C 
HETATM    9  C9  UNL     1     -31.459   4.890   1.893  1.00 20.00     0.019 C 
HETATM   10  O10 UNL     1     -34.195   7.949   4.727  1.00 20.00    -0.293 OA
ENDROOT
TORSDOF 0
