REMARK  1 active torsions:
REMARK  status: ('A' for Active; 'I' for Inactive)
REMARK    1  A    between atoms: C5_5  and  C10_10 
ROOT
HETATM    1  C1  UNL     1     -33.672   7.641   3.521  1.00 20.00    -0.018 C 
HETATM    2  C2  UNL     1     -34.527   6.679   3.894  1.00 20.00    -0.025 C 
HETATM    3  C3  UNL     1     -32.710   6.119   1.789  1.00 20.00     0.135 C 
HETATM    4  C4  UNL     1     -34.031   5.381   1.793  1.00 20.00     0.087 C 
HETATM    5  C5  UNL     1     -32.694   7.521   2.387  1.00 20.00     0.081 C 
HETATM    6  C6  UNL     1     -34.642   5.351   3.197  1.00 20.00     0.010 C 
HETATM    7  C7  UNL     1     -34.010   4.255   4.058  1.00 20.00     0.014 C 
HETATM    8  O11 UNL     1     -31.715   5.646   1.242  1.00 20.00    -0.297 OA
ENDROOT
BRANCH   5   9
HETATM    9  C10 UNL     1     -32.981   8.546   1.296  1.00 20.00    -0.008 C 
HETATM   10  C8  UNL     1     -32.918   9.966   1.858  1.00 20.00     0.010 C 
HETATM   11  C9  UNL     1     -32.000   8.388   0.135  1.00 20.00     0.010 C 
ENDBRANCH   5   9
TORSDOF 1
