REMARK  0 active torsions:
REMARK  status: ('A' for Active; 'I' for Inactive)
ROOT
HETATM    1  C1  UNL     1     -31.896   8.092   3.127  1.00 20.00     0.006 C 
HETATM    2  C2  UNL     1     -33.345   7.741   3.489  1.00 20.00     0.006 C 
HETATM    3  C3  UNL     1     -31.696   6.109   1.630  1.00 20.00     0.021 C 
HETATM    4  C4  UNL     1     -31.451   7.621   1.722  1.00 20.00     0.005 C 
HETATM    5  C5  UNL     1     -33.751   6.325   3.039  1.00 20.00    -0.005 C 
HETATM    6  C6  UNL     1     -33.217   5.976   1.633  1.00 20.00     0.052 C 
HETATM    7  C7  UNL     1     -32.214   8.239   0.517  1.00 20.00     0.005 C 
HETATM    8  C8  UNL     1     -35.264   6.132   3.156  1.00 20.00     0.011 C 
HETATM    9  C9  UNL     1     -31.406   8.085  -0.785  1.00 20.00     0.027 C 
HETATM   10  C10 UNL     1     -32.588   9.713   0.681  1.00 20.00     0.027 C 
HETATM   11  S11 UNL     1     -33.724   7.197   0.363  1.00 20.00    -0.154 SA
ENDROOT
TORSDOF 0
