REMARK  2 active torsions:
REMARK  status: ('A' for Active; 'I' for Inactive)
REMARK    1  A    between atoms: C3_3  and  S9_9 
REMARK    2  A    between atoms: C6_6  and  S9_9 
ROOT
HETATM    1  C1  UNL     1     -31.921  10.290  -0.308  1.00 20.00     0.013 C 
HETATM    2  C2  UNL     1     -32.206   9.319   0.338  1.00 20.00    -0.107 C 
HETATM    3  C6  UNL     1     -32.552   8.129   1.119  1.00 20.00     0.174 C 
ENDROOT
BRANCH   3   4
HETATM    4  S9  UNL     1     -32.903   8.530   2.846  1.00 20.00    -0.092 SA
BRANCH   4   5
HETATM    5  C3  UNL     1     -33.807   7.119   3.290  1.00 20.00     0.125 C 
HETATM    6  N7  UNL     1     -34.734   7.136   4.189  1.00 20.00    -0.275 NA
HETATM    7  C4  UNL     1     -35.339   5.790   4.275  1.00 20.00     0.161 C 
HETATM    8  C5  UNL     1     -34.346   4.739   3.804  1.00 20.00     0.103 C 
HETATM    9  S8  UNL     1     -33.432   5.607   2.516  1.00 20.00    -0.102 SA
ENDBRANCH   4   5
ENDBRANCH   3   4
TORSDOF 2
