REMARK  0 active torsions:
REMARK  status: ('A' for Active; 'I' for Inactive)
ROOT
HETATM    1  C1  UNL     1     -32.013   7.171   1.795  1.00 20.00     0.061 A 
HETATM    2  C2  UNL     1     -32.088   8.121   2.731  1.00 20.00     0.061 A 
HETATM    3  C3  UNL     1     -34.045   6.501   3.265  1.00 20.00     0.254 A 
HETATM    4  O4  UNL     1     -35.016   5.944   3.753  1.00 20.00    -0.272 OA
HETATM    5  S5  UNL     1     -33.189   5.901   1.848  1.00 20.00    -0.052 SA
HETATM    6  S6  UNL     1     -33.354   7.989   3.905  1.00 20.00    -0.052 SA
ENDROOT
TORSDOF 0
