REMARK  2 active torsions:
REMARK  status: ('A' for Active; 'I' for Inactive)
REMARK    1  A    between atoms: C3_3  and  C4_4 
REMARK    2  A    between atoms: C4_4  and  S8_8 
ROOT
HETATM    1  C1  UNL     1     -34.325   6.287   3.056  1.00 20.00     0.109 C 
HETATM    2  C3  UNL     1     -33.211   6.568   2.179  1.00 20.00     0.116 C 
HETATM    3  N5  UNL     1     -35.217   6.071   3.766  1.00 20.00    -0.191 NA
HETATM    4  S7  UNL     1     -32.980   5.495   0.919  1.00 20.00    -0.071 SA
ENDROOT
BRANCH   2   5
HETATM    5  C4  UNL     1     -32.327   7.768   2.424  1.00 20.00     0.206 C 
HETATM    6  C2  UNL     1     -32.352   8.696   1.284  1.00 20.00     0.080 C 
HETATM    7  N6  UNL     1     -32.367   9.427   0.382  1.00 20.00    -0.196 NA
BRANCH   5   8
HETATM    8  S8  UNL     1     -32.870   8.591   3.959  1.00 20.00    -0.157 SA
HETATM    9  H10 UNL     1     -31.909   9.523   3.958  1.00 20.00     0.103 HD
ENDBRANCH   5   8
ENDBRANCH   2   5
TORSDOF 2
