REMARK  2 active torsions:
REMARK  status: ('A' for Active; 'I' for Inactive)
REMARK    1  A    between atoms: C4_4  and  C6_6 
REMARK    2  A    between atoms: C5_5  and  C6_6 
ROOT
HETATM    1  C1  UNL     1     -32.423   9.688   0.134  1.00 20.00     0.012 C 
HETATM    2  C2  UNL     1     -32.140   8.702   0.758  1.00 20.00    -0.117 C 
HETATM    3  C5  UNL     1     -31.789   7.498   1.523  1.00 20.00     0.095 C 
ENDROOT
BRANCH   3   4
HETATM    4  C6  UNL     1     -33.014   6.615   1.756  1.00 20.00     0.046 C 
BRANCH   4   5
HETATM    5  C4  UNL     1     -34.069   7.324   2.548  1.00 20.00     0.146 A 
HETATM    6  C3  UNL     1     -34.009   7.381   4.049  1.00 20.00     0.200 A 
HETATM    7  O7  UNL     1     -34.879   6.468   3.361  1.00 20.00    -0.381 OA
ENDBRANCH   4   5
ENDBRANCH   3   4
TORSDOF 2
