REMARK  0 active torsions:
REMARK  status: ('A' for Active; 'I' for Inactive)
ROOT
HETATM    1  C1  UNL     1     -31.623   7.439   1.872  1.00 20.00    -0.021 C 
HETATM    2  C2  UNL     1     -31.566   6.115   1.648  1.00 20.00    -0.025 C 
HETATM    3  C3  UNL     1     -33.678   7.176   3.183  1.00 20.00    -0.081 C 
HETATM    4  C4  UNL     1     -34.173   7.807   4.250  1.00 20.00     0.015 C 
HETATM    5  C5  UNL     1     -33.642   5.668   2.959  1.00 20.00     0.042 C 
HETATM    6  C6  UNL     1     -33.627   6.843   0.888  1.00 20.00     0.022 C 
HETATM    7  C7  UNL     1     -33.085   7.817   1.940  1.00 20.00     0.036 C 
HETATM    8  C8  UNL     1     -32.994   5.614   1.553  1.00 20.00     0.013 C 
ENDROOT
TORSDOF 0
