REMARK  0 active torsions:
REMARK  status: ('A' for Active; 'I' for Inactive)
ROOT
HETATM    1  C1  UNL     1     -32.892   7.245   2.438  1.00 20.00     0.017 A 
HETATM    2  C2  UNL     1     -33.012   5.822   2.105  1.00 20.00     0.296 A 
HETATM    3  C3  UNL     1     -34.370   6.238   3.855  1.00 20.00     0.270 A 
HETATM    4  C4  UNL     1     -32.090   8.071   1.763  1.00 20.00     0.025 C 
HETATM    5  C5  UNL     1     -33.764   7.579   3.583  1.00 20.00     0.155 A 
HETATM    6  O6  UNL     1     -32.436   5.217   1.219  1.00 20.00    -0.259 OA
HETATM    7  O7  UNL     1     -35.181   6.009   4.741  1.00 20.00    -0.264 OA
HETATM    8  O8  UNL     1     -33.902   5.298   2.985  1.00 20.00    -0.241 OA
ENDROOT
TORSDOF 0
