REMARK  3 active torsions:
REMARK  status: ('A' for Active; 'I' for Inactive)
REMARK    1  A    between atoms: C1_1  and  C7_7 
REMARK    2  A    between atoms: C4_4  and  C6_6 
REMARK    3  A    between atoms: C6_6  and  C7_7 
ROOT
HETATM    1  C6  UNL     1     -31.843   8.395   1.160  1.00 20.00     0.015 C 
ENDROOT
BRANCH   1   2
HETATM    2  C4  UNL     1     -32.799   9.535   0.832  1.00 20.00    -0.014 A 
HETATM    3  C2  UNL     1     -32.279  10.814   0.237  1.00 20.00     0.005 A 
HETATM    4  C3  UNL     1     -33.106   9.878  -0.600  1.00 20.00     0.005 A 
ENDBRANCH   1   2
BRANCH   1   5
HETATM    5  C7  UNL     1     -32.558   7.044   1.293  1.00 20.00     0.043 C 
HETATM    6  C5  UNL     1     -31.574   5.891   1.105  1.00 20.00     0.017 C 
BRANCH   5   7
HETATM    7  C1  UNL     1     -33.233   6.861   2.641  1.00 20.00     0.235 C 
HETATM    8  O8  UNL     1     -33.235   7.690   3.545  1.00 20.00    -0.306 OA
ENDBRANCH   5   7
ENDBRANCH   1   5
TORSDOF 3
