REMARK  0 active torsions:
REMARK  status: ('A' for Active; 'I' for Inactive)
ROOT
HETATM    1  C1  UNL     1     -32.713   5.554   1.740  1.00 20.00     0.050 C 
HETATM    2  C2  UNL     1     -32.887   6.847   2.099  1.00 20.00     0.094 C 
HETATM    3 CL3  UNL     1     -33.836   7.284   3.481  1.00 20.00    -0.072 Cl
HETATM    4 CL4  UNL     1     -32.172   8.142   1.197  1.00 20.00    -0.072 Cl
ENDROOT
TORSDOF 0
