REMARK  0 active torsions:
REMARK  status: ('A' for Active; 'I' for Inactive)
ROOT
HETATM    1  C1  UNL     1     -34.784   5.184   4.191  1.00 20.00     0.068 C 
HETATM    2  C2  UNL     1     -34.451   6.421   3.367  1.00 20.00     0.184 C 
HETATM    3 CL3  UNL     1     -33.875   7.724   4.444  1.00 20.00    -0.084 Cl
HETATM    4 CL4  UNL     1     -33.174   6.031   2.182  1.00 20.00    -0.084 Cl
HETATM    5 CL5  UNL     1     -35.908   6.978   2.499  1.00 20.00    -0.084 Cl
ENDROOT
TORSDOF 0
