REMARK  1 active torsions:
REMARK  status: ('A' for Active; 'I' for Inactive)
REMARK    1  A    between atoms: C2_2  and  C5_5 
ROOT
HETATM    1  C1  UNL     1     -32.375   6.119   2.218  1.00 20.00     0.088 A 
HETATM    2  C2  UNL     1     -33.299   6.988   2.760  1.00 20.00     0.147 A 
HETATM    3  C3  UNL     1     -32.510   8.288   1.179  1.00 20.00     0.071 A 
HETATM    4  C4  UNL     1     -32.306   9.467   0.310  1.00 20.00     0.078 C 
HETATM    5  N6  UNL     1     -33.377   8.233   2.166  1.00 20.00    -0.241 NA
HETATM    6  S10 UNL     1     -31.568   6.879   0.910  1.00 20.00    -0.085 SA
ENDROOT
BRANCH   2   7
HETATM    7  C5  UNL     1     -34.190   6.699   3.901  1.00 20.00     0.435 C 
HETATM    8  F7  UNL     1     -34.041   5.440   4.426  1.00 20.00    -0.165 F 
HETATM    9  F8  UNL     1     -34.021   7.538   4.973  1.00 20.00    -0.165 F 
HETATM   10  F9  UNL     1     -35.520   6.793   3.585  1.00 20.00    -0.165 F 
ENDBRANCH   2   7
TORSDOF 1
