REMARK  0 active torsions:
REMARK  status: ('A' for Active; 'I' for Inactive)
ROOT
HETATM    1  C1  UNL     1     -32.840   7.263   2.367  1.00 20.00     0.409 C 
HETATM    2  C2  UNL     1     -33.819   5.335   2.987  1.00 20.00     0.247 C 
HETATM    3  C3  UNL     1     -34.209   6.429   3.926  1.00 20.00     0.343 C 
HETATM    4  O4  UNL     1     -32.165   8.061   1.735  1.00 20.00    -0.229 OA
HETATM    5  O5  UNL     1     -33.262   6.051   1.891  1.00 20.00    -0.293 OA
HETATM    6  O6  UNL     1     -33.273   7.455   3.650  1.00 20.00    -0.260 OA
HETATM    7  F7  UNL     1     -35.441   6.898   3.607  1.00 20.00    -0.217 F 
ENDROOT
TORSDOF 0
