REMARK  1 active torsions:
REMARK  status: ('A' for Active; 'I' for Inactive)
REMARK    1  A    between atoms: C3_3  and  C5_5 
ROOT
HETATM    1  C1  UNL     1     -33.852   7.812   2.516  1.00 20.00     0.032 A 
HETATM    2  C2  UNL     1     -33.044   8.378   1.509  1.00 20.00    -0.044 A 
HETATM    3  C3  UNL     1     -33.569   6.464   2.667  1.00 20.00     0.068 A 
HETATM    4  C4  UNL     1     -32.199   7.462   0.946  1.00 20.00    -0.010 A 
HETATM    5  C6  UNL     1     -32.869   9.717   0.898  1.00 20.00     0.040 C 
HETATM    6  C7  UNL     1     -31.330   8.016  -0.117  1.00 20.00     0.047 C 
HETATM    7  C8  UNL     1     -32.022   9.392  -0.373  1.00 20.00     0.010 C 
HETATM    8  S10 UNL     1     -32.331   5.922   1.584  1.00 20.00    -0.089 SA
ENDROOT
BRANCH   3   9
HETATM    9  C5  UNL     1     -34.153   5.523   3.567  1.00 20.00     0.259 C 
HETATM   10  O9  UNL     1     -33.766   4.321   3.565  1.00 20.00    -0.273 OA
HETATM   11 CL11 UNL     1     -35.435   5.986   4.722  1.00 20.00    -0.038 Cl
ENDBRANCH   3   9
TORSDOF 1
