REMARK  0 active torsions:
REMARK  status: ('A' for Active; 'I' for Inactive)
ROOT
HETATM    1  C1  UNL     1     -34.394   6.834   3.351  1.00 20.00     0.064 C 
HETATM    2  C2  UNL     1     -31.815   8.399   2.630  1.00 20.00     0.011 C 
HETATM    3  C3  UNL     1     -31.559   8.076   0.294  1.00 20.00     0.010 C 
HETATM    4  C4  UNL     1     -33.746   7.099   2.056  1.00 20.00     0.101 C 
HETATM    5  C5  UNL     1     -31.369   7.332   1.631  1.00 20.00    -0.009 C 
HETATM    6  C6  UNL     1     -33.201   8.551   1.995  1.00 20.00     0.007 C 
HETATM    7  C7  UNL     1     -32.858   8.878   0.520  1.00 20.00    -0.013 C 
HETATM    8  C8  UNL     1     -32.473   6.251   1.771  1.00 20.00     0.003 C 
HETATM    9  C9  UNL     1     -32.667  10.371   0.273  1.00 20.00     0.010 C 
HETATM   10  C10 UNL     1     -32.109   5.200   2.819  1.00 20.00     0.011 C 
HETATM   11  N11 UNL     1     -34.905   6.625   4.371  1.00 20.00    -0.197 NA
ENDROOT
TORSDOF 0
