REMARK  0 active torsions:
REMARK  status: ('A' for Active; 'I' for Inactive)
ROOT
HETATM    1  C1  UNL     1     -33.584   7.696   3.353  1.00 20.00     0.055 C 
HETATM    2  C2  UNL     1     -34.206   6.525   3.456  1.00 20.00    -0.046 C 
HETATM    3  C3  UNL     1     -32.754   7.543   2.143  1.00 20.00     0.150 C 
HETATM    4  C4  UNL     1     -34.908   5.855   4.567  1.00 20.00     0.202 C 
HETATM    5  C5  UNL     1     -32.809   6.136   1.590  1.00 20.00     0.094 C 
HETATM    6  C6  UNL     1     -33.701   4.331   3.260  1.00 20.00     0.177 C 
HETATM    7  C7  UNL     1     -33.954   5.536   2.382  1.00 20.00     0.048 C 
HETATM    8  O8  UNL     1     -32.068   8.446   1.687  1.00 20.00    -0.293 OA
HETATM    9  O9  UNL     1     -34.648   4.446   4.349  1.00 20.00    -0.386 OA
ENDROOT
TORSDOF 0
