REMARK  0 active torsions:
REMARK  status: ('A' for Active; 'I' for Inactive)
ROOT
HETATM    1  C1  UNL     1     -32.422   5.510   1.283  1.00 20.00     0.015 A 
HETATM    2  C2  UNL     1     -31.791   6.568   0.767  1.00 20.00     0.083 A 
HETATM    3  C3  UNL     1     -33.297   5.648   2.418  1.00 20.00    -0.028 A 
HETATM    4  C4  UNL     1     -33.473   6.869   2.946  1.00 20.00     0.063 A 
HETATM    5  C5  UNL     1     -31.980   7.911   1.351  1.00 20.00     0.287 A 
HETATM    6  C6  UNL     1     -33.967   4.417   2.962  1.00 20.00     0.041 C 
HETATM    7  C7  UNL     1     -34.377   7.141   4.112  1.00 20.00     0.066 C 
HETATM    8  C8  UNL     1     -34.590   4.639   4.345  1.00 20.00     0.005 C 
HETATM    9  C9  UNL     1     -35.321   5.976   4.416  1.00 20.00     0.007 C 
HETATM   10  O10 UNL     1     -31.400   8.885   0.882  1.00 20.00    -0.260 OA
HETATM   11  O11 UNL     1     -32.822   8.011   2.425  1.00 20.00    -0.279 OA
ENDROOT
TORSDOF 0
