REMARK  0 active torsions:
REMARK  status: ('A' for Active; 'I' for Inactive)
ROOT
HETATM    1  C1  UNL     1     -34.312   4.377   4.523  1.00 20.00     0.087 A 
HETATM    2  C2  UNL     1     -32.387   3.894   3.131  1.00 20.00     0.063 A 
HETATM    3  C3  UNL     1     -33.511   6.064   2.968  1.00 20.00     0.114 A 
HETATM    4  C4  UNL     1     -33.305   3.511   4.112  1.00 20.00     0.120 A 
HETATM    5  C5  UNL     1     -34.426   5.652   3.961  1.00 20.00     0.149 A 
HETATM    6  C6  UNL     1     -32.507   5.176   2.571  1.00 20.00     0.042 A 
HETATM    7  C7  UNL     1     -32.512   7.329   1.462  1.00 20.00     0.145 A 
HETATM    8  N8  UNL     1     -33.501   7.293   2.324  1.00 20.00    -0.230 NA
HETATM    9  F9  UNL     1     -33.213   2.293   4.663  1.00 20.00    -0.206 F 
HETATM   10  F10 UNL     1     -35.402   6.475   4.371  1.00 20.00    -0.203 F 
HETATM   11  S11 UNL     1     -31.539   5.926   1.357  1.00 20.00    -0.060 SA
HETATM   12 BR12 UNL     1     -32.180   8.868   0.382  1.00 20.00    -0.021 Br
ENDROOT
TORSDOF 0
