REMARK  0 active torsions:
REMARK  status: ('A' for Active; 'I' for Inactive)
ROOT
HETATM    1  C1  UNL     1     -33.169   6.983   2.396  1.00 20.00     0.050 A 
HETATM    2  C2  UNL     1     -33.830   7.800   3.292  1.00 20.00     0.010 A 
HETATM    3  C3  UNL     1     -32.453   8.926   1.686  1.00 20.00     0.168 A 
HETATM    4  C4  UNL     1     -33.313   5.500   2.396  1.00 20.00     0.060 C 
HETATM    5  C5  UNL     1     -34.718   7.331   4.394  1.00 20.00     0.048 C 
HETATM    6  C6  UNL     1     -33.926   4.999   3.716  1.00 20.00     0.006 C 
HETATM    7  C7  UNL     1     -35.120   5.863   4.160  1.00 20.00     0.006 C 
HETATM    8  N8  UNL     1     -32.381   7.630   1.468  1.00 20.00    -0.233 NA
HETATM    9  S9  UNL     1     -33.456   9.432   2.990  1.00 20.00    -0.061 SA
HETATM   10 CL10 UNL     1     -31.611  10.085   0.746  1.00 20.00    -0.054 Cl
ENDROOT
TORSDOF 0
