REMARK  2 active torsions:
REMARK  status: ('A' for Active; 'I' for Inactive)
REMARK    1  A    between atoms: C2_2  and  C7_7 
REMARK    2  A    between atoms: C3_3  and  C6_6 
ROOT
HETATM    1  C1  UNL     1     -33.563   7.501   3.230  1.00 20.00     0.066 A 
HETATM    2  C2  UNL     1     -32.884   7.764   2.028  1.00 20.00     0.068 A 
HETATM    3  C3  UNL     1     -33.745   6.143   3.211  1.00 20.00     0.094 A 
HETATM    4  N8  UNL     1     -32.661   6.654   1.318  1.00 20.00    -0.133 NA
HETATM    5  O9  UNL     1     -33.211   5.627   2.075  1.00 20.00    -0.216 OA
ENDROOT
BRANCH   2   6
HETATM    6  C7  UNL     1     -32.413   9.107   1.500  1.00 20.00     0.032 C 
HETATM    7  C4  UNL     1     -33.286  10.252   2.019  1.00 20.00     0.016 C 
HETATM    8  C5  UNL     1     -32.349   9.119  -0.029  1.00 20.00     0.016 C 
ENDBRANCH   2   6
BRANCH   3   9
HETATM    9  C6  UNL     1     -34.374   5.189   4.133  1.00 20.00     0.181 C 
HETATM   10 CL10 UNL     1     -33.595   3.584   4.041  1.00 20.00    -0.123 Cl
ENDBRANCH   3   9
TORSDOF 2
