REMARK  0 active torsions:
REMARK  status: ('A' for Active; 'I' for Inactive)
ROOT
HETATM    1  C1  UNL     1     -32.716   8.751   1.340  1.00 20.00     0.135 C 
HETATM    2  C2  UNL     1     -31.248   6.978   2.212  1.00 20.00     0.017 C 
HETATM    3  C3  UNL     1     -32.797   6.526   0.290  1.00 20.00     0.017 C 
HETATM    4  C4  UNL     1     -33.187   7.834   3.576  1.00 20.00     0.037 C 
HETATM    5  C5  UNL     1     -34.739   7.382   1.650  1.00 20.00     0.037 C 
HETATM    6  C6  UNL     1     -33.281   5.536   2.550  1.00 20.00     0.030 C 
HETATM    7  C7  UNL     1     -32.062   8.217   2.605  1.00 20.00     0.058 C 
HETATM    8  C8  UNL     1     -33.638   7.758   0.649  1.00 20.00     0.058 C 
HETATM    9  C9  UNL     1     -32.166   5.924   1.561  1.00 20.00    -0.011 C 
HETATM   10  C10 UNL     1     -34.109   6.780   2.925  1.00 20.00     0.039 C 
HETATM   11  O11 UNL     1     -32.517   9.885   0.914  1.00 20.00    -0.297 OA
HETATM   12 CL12 UNL     1     -35.400   6.321   4.073  1.00 20.00    -0.119 Cl
ENDROOT
TORSDOF 0
