REMARK  3 active torsions:
REMARK  status: ('A' for Active; 'I' for Inactive)
REMARK    1  A    between atoms: C1_1  and  C6_6 
REMARK    2  A    between atoms: C4_4  and  C7_7 
REMARK    3  A    between atoms: C6_6  and  C7_7 
ROOT
HETATM    1  C7  UNL     1     -32.306   8.378   2.001  1.00 20.00     0.019 C 
ENDROOT
BRANCH   1   2
HETATM    2  C4  UNL     1     -31.947   8.563   0.553  1.00 20.00    -0.043 A 
HETATM    3  C2  UNL     1     -31.393   9.902   0.126  1.00 20.00     0.010 A 
HETATM    4  C3  UNL     1     -32.788   9.510  -0.270  1.00 20.00     0.010 A 
HETATM    5  C5  UNL     1     -31.410   7.330  -0.121  1.00 20.00     0.015 C 
ENDBRANCH   1   2
BRANCH   1   6
HETATM    6  C6  UNL     1     -33.340   7.279   2.208  1.00 20.00     0.114 C 
BRANCH   6   7
HETATM    7  C1  UNL     1     -33.823   7.048   3.645  1.00 20.00     0.172 C 
HETATM    8  O8  UNL     1     -34.669   6.128   3.813  1.00 20.00    -0.648 OA
HETATM    9  O9  UNL     1     -33.293   7.816   4.499  1.00 20.00    -0.648 OA
ENDBRANCH   6   7
ENDBRANCH   1   6
TORSDOF 3
