REMARK  0 active torsions:
REMARK  status: ('A' for Active; 'I' for Inactive)
ROOT
HETATM    1  C1  UNL     1     -34.777   5.118   4.168  1.00 20.00     0.105 C 
HETATM    2  C2  UNL     1     -32.347   6.081   1.517  1.00 20.00     0.068 A 
HETATM    3  C3  UNL     1     -32.975   8.055   2.759  1.00 20.00     0.068 A 
HETATM    4  C4  UNL     1     -33.918   5.909   3.344  1.00 20.00     0.121 A 
HETATM    5  C5  UNL     1     -33.185   5.308   2.321  1.00 20.00     0.141 A 
HETATM    6  C6  UNL     1     -33.813   7.283   3.563  1.00 20.00     0.141 A 
HETATM    7  C7  UNL     1     -32.242   7.454   1.736  1.00 20.00     0.040 A 
HETATM    8  N8  UNL     1     -35.475   4.475   4.837  1.00 20.00    -0.191 NA
HETATM    9  F9  UNL     1     -33.276   3.989   2.098  1.00 20.00    -0.204 F 
HETATM   10  F10 UNL     1     -34.512   7.876   4.542  1.00 20.00    -0.204 F 
HETATM   11 CL11 UNL     1     -31.208   8.408   0.744  1.00 20.00    -0.084 Cl
ENDROOT
TORSDOF 0
