REMARK  1 active torsions:
REMARK  status: ('A' for Active; 'I' for Inactive)
REMARK    1  A    between atoms: C3_3  and  C8_8 
ROOT
HETATM    1  C1  UNL     1     -32.967   9.463  -0.634  1.00 20.00    -0.026 C 
HETATM    2  C2  UNL     1     -32.038   8.497  -0.590  1.00 20.00    -0.025 C 
HETATM    3  C4  UNL     1     -31.311  10.182   0.810  1.00 20.00     0.018 C 
HETATM    4  C5  UNL     1     -33.322   9.390   1.810  1.00 20.00     0.022 C 
HETATM    5  C6  UNL     1     -32.831  10.268   0.636  1.00 20.00     0.009 C 
HETATM    6  C7  UNL     1     -31.289   8.652   0.716  1.00 20.00     0.021 C 
HETATM    7  C8  UNL     1     -32.227   8.287   1.892  1.00 20.00     0.080 C 
ENDROOT
BRANCH   7   8
HETATM    8  C3  UNL     1     -32.784   6.900   1.802  1.00 20.00     0.223 C 
HETATM    9  O9  UNL     1     -32.467   6.135   0.895  1.00 20.00    -0.279 OA
HETATM   10 CL10 UNL     1     -33.883   6.551   3.101  1.00 20.00    -0.043 Cl
ENDBRANCH   7   8
TORSDOF 1
