REMARK  3 active torsions:
REMARK  status: ('A' for Active; 'I' for Inactive)
REMARK    1  A    between atoms: C2_2  and  O6_6 
REMARK    2  A    between atoms: C3_3  and  C4_4 
REMARK    3  A    between atoms: C3_3  and  O6_6 
ROOT
HETATM    1  C1  UNL     1     -32.718   9.415   0.872  1.00 20.00     0.085 C 
HETATM    2  C2  UNL     1     -32.368   8.294   1.745  1.00 20.00     0.291 C 
HETATM    3  N5  UNL     1     -32.995  10.304   0.180  1.00 20.00    -0.195 NA
ENDROOT
BRANCH   2   4
HETATM    4  O6  UNL     1     -33.057   7.118   1.344  1.00 20.00    -0.369 OA
BRANCH   4   5
HETATM    5  C3  UNL     1     -34.397   7.111   1.819  1.00 20.00     0.286 C 
BRANCH   5   6
HETATM    6  C4  UNL     1     -34.404   6.700   3.268  1.00 20.00     0.408 C 
HETATM    7  F7  UNL     1     -33.868   5.468   3.415  1.00 20.00    -0.169 F 
HETATM    8  F8  UNL     1     -35.660   6.663   3.760  1.00 20.00    -0.169 F 
HETATM    9  F9  UNL     1     -33.682   7.554   4.023  1.00 20.00    -0.169 F 
ENDBRANCH   5   6
ENDBRANCH   4   5
ENDBRANCH   2   4
TORSDOF 3
