REMARK  0 active torsions:
REMARK  status: ('A' for Active; 'I' for Inactive)
ROOT
HETATM    1  C1  UNL     1     -33.977   8.420   2.090  1.00 20.00     0.042 C 
HETATM    2  C2  UNL     1     -33.449   5.993   2.627  1.00 20.00     0.042 C 
HETATM    3  C3  UNL     1     -31.231   7.769   2.447  1.00 20.00     0.174 C 
HETATM    4  C4  UNL     1     -31.922   7.328   1.148  1.00 20.00     0.017 C 
HETATM    5  C5  UNL     1     -33.081   8.310   0.841  1.00 20.00    -0.009 C 
HETATM    6  C6  UNL     1     -32.561   5.934   1.368  1.00 20.00    -0.009 C 
HETATM    7  C7  UNL     1     -33.491   7.434   3.171  1.00 20.00     0.058 C 
HETATM    8  C8  UNL     1     -32.597   9.681   0.369  1.00 20.00     0.010 C 
HETATM    9  C9  UNL     1     -31.529   4.810   1.455  1.00 20.00     0.010 C 
HETATM   10  C10 UNL     1     -34.362   7.521   4.420  1.00 20.00     0.046 C 
HETATM   11  O11 UNL     1     -32.151   7.808   3.546  1.00 20.00    -0.380 OA
ENDROOT
TORSDOF 0
