REMARK  1 active torsions:
REMARK  status: ('A' for Active; 'I' for Inactive)
REMARK    1  A    between atoms: C1_1  and  C2_2 
ROOT
HETATM    1  C1  UNL     1     -32.755   6.749   2.239  1.00 20.00     0.208 C 
HETATM    2  O3  UNL     1     -32.807   5.629   1.755  1.00 20.00    -0.284 OA
HETATM    3 BR5  UNL     1     -34.105   7.169   3.524  1.00 20.00    -0.008 Br
ENDROOT
BRANCH   1   4
HETATM    4  C2  UNL     1     -31.747   7.817   1.930  1.00 20.00     0.205 C 
HETATM    5 CL4  UNL     1     -32.305   8.809   0.574  1.00 20.00    -0.122 Cl
ENDBRANCH   1   4
TORSDOF 1
