REMARK  0 active torsions:
REMARK  status: ('A' for Active; 'I' for Inactive)
ROOT
HETATM    1  C1  UNL     1     -33.405   7.818   3.664  1.00 20.00     0.345 C 
HETATM    2  C2  UNL     1     -31.943   7.131   1.847  1.00 20.00     0.345 C 
HETATM    3  C3  UNL     1     -33.587   5.184   2.886  1.00 20.00     0.151 C 
HETATM    4  N4  UNL     1     -32.812   8.177   2.379  1.00 20.00     0.101 N 
HETATM    5  S5  UNL     1     -34.645   6.494   3.555  1.00 20.00    -0.129 SA
HETATM    6  S6  UNL     1     -32.834   5.643   1.304  1.00 20.00    -0.129 SA
HETATM    7  H13 UNL     1     -33.553   8.375   1.708  1.00 20.00     0.317 HD
ENDROOT
TORSDOF 0
