REMARK  3 active torsions:
REMARK  status: ('A' for Active; 'I' for Inactive)
REMARK    1  A    between atoms: C1_1  and  C2_2 
REMARK    2  A    between atoms: C4_4  and  C6_6 
REMARK    3  A    between atoms: C6_6  and  O7_7 
ROOT
HETATM    1  C2  UNL     1     -33.547   6.634   2.722  1.00 20.00    -0.002 C 
HETATM    2  C4  UNL     1     -34.273   6.573   3.848  1.00 20.00    -0.001 C 
ENDROOT
BRANCH   1   3
HETATM    3  C1  UNL     1     -32.198   7.150   2.677  1.00 20.00    -0.005 C 
HETATM    4  C3  UNL     1     -31.472   7.210   1.551  1.00 20.00    -0.031 C 
HETATM    5  C5  UNL     1     -31.971   6.753   0.219  1.00 20.00     0.036 C 
ENDBRANCH   1   3
BRANCH   2   6
HETATM    6  C6  UNL     1     -35.667   6.037   3.904  1.00 20.00     0.191 C 
BRANCH   6   7
HETATM    7  O7  UNL     1     -35.712   4.906   4.764  1.00 20.00    -0.397 OA
HETATM    8  H17 UNL     1     -36.632   4.594   4.769  1.00 20.00     0.209 HD
ENDBRANCH   6   7
ENDBRANCH   2   6
TORSDOF 3
