REMARK  0 active torsions:
REMARK  status: ('A' for Active; 'I' for Inactive)
ROOT
HETATM    1  C1  UNL     1     -33.991   6.831   3.689  1.00 20.00     0.129 C 
HETATM    2  C2  UNL     1     -33.027   7.987   3.471  1.00 20.00     0.093 C 
HETATM    3  C3  UNL     1     -33.636   5.468   3.112  1.00 20.00     0.093 C 
HETATM    4  C4  UNL     1     -33.365   7.870   0.955  1.00 20.00     0.017 C 
HETATM    5  C5  UNL     1     -33.724   6.388   0.743  1.00 20.00     0.017 C 
HETATM    6  C6  UNL     1     -32.353   7.988   2.098  1.00 20.00     0.054 C 
HETATM    7  C7  UNL     1     -32.948   5.529   1.747  1.00 20.00     0.054 C 
HETATM    8  O8  UNL     1     -34.982   6.968   4.409  1.00 20.00    -0.298 OA
HETATM    9  S9  UNL     1     -31.410   6.459   1.914  1.00 20.00    -0.159 SA
ENDROOT
TORSDOF 0
