REMARK  2 active torsions:
REMARK  status: ('A' for Active; 'I' for Inactive)
REMARK    1  A    between atoms: C1_1  and  C3_3 
REMARK    2  A    between atoms: C2_2  and  C5_5 
ROOT
HETATM    1  C1  UNL     1     -32.572   7.612   2.296  1.00 20.00     0.003 C 
HETATM    2  C2  UNL     1     -33.515   7.580   3.246  1.00 20.00     0.041 C 
ENDROOT
BRANCH   1   3
HETATM    3  C3  UNL     1     -32.166   6.436   1.559  1.00 20.00    -0.004 C 
HETATM    4  C4  UNL     1     -33.029   5.503   1.132  1.00 20.00    -0.031 C 
HETATM    5  C6  UNL     1     -32.622   4.285   0.370  1.00 20.00     0.036 C 
ENDBRANCH   1   3
BRANCH   2   6
HETATM    6  C5  UNL     1     -34.172   6.295   3.559  1.00 20.00     0.258 C 
HETATM    7  O7  UNL     1     -35.327   6.240   3.963  1.00 20.00    -0.302 OA
ENDBRANCH   2   6
TORSDOF 2
