REMARK  2 active torsions:
REMARK  status: ('A' for Active; 'I' for Inactive)
REMARK    1  A    between atoms: C4_4  and  C10_10 
REMARK    2  A    between atoms: C10_10  and  O11_11 
ROOT
HETATM    1  C1  UNL     1     -33.036   6.659   2.243  1.00 20.00    -0.069 C 
HETATM    2  C2  UNL     1     -32.067   6.933   1.367  1.00 20.00    -0.085 C 
HETATM    3  C3  UNL     1     -33.839   5.407   2.524  1.00 20.00     0.043 C 
HETATM    4  C4  UNL     1     -34.150   6.080   3.885  1.00 20.00     0.025 C 
HETATM    5  C5  UNL     1     -33.754   7.491   3.309  1.00 20.00    -0.018 C 
HETATM    6  C6  UNL     1     -31.419   8.287   1.289  1.00 20.00     0.043 C 
HETATM    7  C7  UNL     1     -31.556   5.907   0.394  1.00 20.00     0.043 C 
HETATM    8  C8  UNL     1     -34.879   8.367   2.756  1.00 20.00     0.020 C 
HETATM    9  C9  UNL     1     -32.843   8.281   4.248  1.00 20.00     0.020 C 
ENDROOT
BRANCH   4  10
HETATM   10  C10 UNL     1     -35.558   5.869   4.420  1.00 20.00     0.170 C 
BRANCH  10  11
HETATM   11  O11 UNL     1     -35.632   4.583   5.014  1.00 20.00    -0.400 OA
HETATM   12  H29 UNL     1     -36.539   4.476   5.346  1.00 20.00     0.209 HD
ENDBRANCH  10  11
ENDBRANCH   4  10
TORSDOF 2
