REMARK  1 active torsions:
REMARK  status: ('A' for Active; 'I' for Inactive)
REMARK    1  A    between atoms: C6_6  and  C10_10 
ROOT
HETATM    1  C1  UNL     1     -32.852   4.213   2.943  1.00 20.00     0.053 C 
HETATM    2  C2  UNL     1     -33.419   3.862   4.107  1.00 20.00    -0.080 C 
HETATM    3  C3  UNL     1     -33.142   5.528   2.316  1.00 20.00     0.154 C 
HETATM    4  C4  UNL     1     -34.425   4.725   4.823  1.00 20.00     0.034 C 
HETATM    5  C5  UNL     1     -35.054   5.775   3.909  1.00 20.00     0.017 C 
HETATM    6  C6  UNL     1     -34.022   6.516   3.060  1.00 20.00     0.063 C 
HETATM    7  C7  UNL     1     -33.077   2.564   4.779  1.00 20.00     0.043 C 
HETATM    8  O11 UNL     1     -32.620   5.813   1.239  1.00 20.00    -0.293 OA
ENDROOT
BRANCH   6   9
HETATM    9  C10 UNL     1     -33.152   7.465   3.878  1.00 20.00    -0.011 C 
HETATM   10  C8  UNL     1     -32.177   8.216   2.972  1.00 20.00     0.010 C 
HETATM   11  C9  UNL     1     -34.019   8.448   4.663  1.00 20.00     0.010 C 
ENDBRANCH   6   9
TORSDOF 1
