REMARK  0 active torsions:
REMARK  status: ('A' for Active; 'I' for Inactive)
ROOT
HETATM    1  C1  UNL     1     -32.225   8.279   2.564  1.00 20.00     0.027 A 
HETATM    2  C2  UNL     1     -31.692   7.535   1.522  1.00 20.00     0.116 A 
HETATM    3  C3  UNL     1     -33.188   5.795   1.821  1.00 20.00     0.124 A 
HETATM    4  C4  UNL     1     -33.281   7.706   3.244  1.00 20.00    -0.049 A 
HETATM    5  C5  UNL     1     -33.775   6.453   2.878  1.00 20.00    -0.030 A 
HETATM    6  C6  UNL     1     -34.070   8.281   4.378  1.00 20.00     0.040 C 
HETATM    7  C7  UNL     1     -34.754   7.019   4.927  1.00 20.00     0.014 C 
HETATM    8  C8  UNL     1     -34.951   6.070   3.725  1.00 20.00     0.017 C 
HETATM    9  C9  UNL     1     -34.996   4.609   4.143  1.00 20.00     0.015 C 
HETATM   10  N10 UNL     1     -32.143   6.312   1.134  1.00 20.00    -0.273 NA
ENDROOT
TORSDOF 0
