REMARK  1 active torsions:
REMARK  status: ('A' for Active; 'I' for Inactive)
REMARK    1  A    between atoms: C1_1  and  C2_2 
ROOT
HETATM    1  C1  UNL     1     -34.292   6.558   3.368  1.00 20.00     0.028 C 
HETATM    2  C4  UNL     1     -34.394   5.891   2.013  1.00 20.00     0.059 C 
HETATM    3  C5  UNL     1     -33.013   5.755   1.384  1.00 20.00     0.008 C 
HETATM    4  C6  UNL     1     -32.091   6.928   1.716  1.00 20.00     0.022 C 
HETATM    5  C7  UNL     1     -32.842   8.080   2.370  1.00 20.00     0.149 C 
HETATM    6  N9  UNL     1     -33.563   7.610   3.559  1.00 20.00    -0.294 NA
ENDROOT
BRANCH   1   7
HETATM    7  C2  UNL     1     -35.082   5.987   4.474  1.00 20.00     0.022 C 
HETATM    8  C3  UNL     1     -34.914   4.747   4.880  1.00 20.00    -0.029 C 
HETATM    9  C8  UNL     1     -33.913   3.835   4.250  1.00 20.00     0.036 C 
ENDBRANCH   1   7
TORSDOF 1
