REMARK  4 active torsions:
REMARK  status: ('A' for Active; 'I' for Inactive)
REMARK    1  A    between atoms: C6_6  and  C8_8 
REMARK    2  A    between atoms: C7_7  and  C9_9 
REMARK    3  A    between atoms: C10_10  and  C11_11 
REMARK    4  A    between atoms: C11_11  and  O12_12 
ROOT
HETATM    1  C4  UNL     1     -32.562   7.886   0.340  1.00 20.00     0.012 C 
HETATM    2  C5  UNL     1     -32.713   9.219   2.355  1.00 20.00     0.012 C 
HETATM    3  C8  UNL     1     -32.469   6.918   1.514  1.00 20.00    -0.006 C 
HETATM    4  C9  UNL     1     -32.564   7.768   2.799  1.00 20.00    -0.006 C 
HETATM    5  C10 UNL     1     -33.181   9.170   0.898  1.00 20.00     0.010 C 
ENDROOT
BRANCH   5   6
HETATM    6  C11 UNL     1     -32.782  10.409   0.108  1.00 20.00     0.168 C 
BRANCH   6   7
HETATM    7  O12 UNL     1     -33.208  10.249  -1.233  1.00 20.00    -0.400 OA
HETATM    8  H30 UNL     1     -32.942  11.051  -1.714  1.00 20.00     0.209 HD
ENDBRANCH   6   7
ENDBRANCH   5   6
BRANCH   3   9
HETATM    9  C6  UNL     1     -33.585   5.866   1.715  1.00 20.00    -0.010 C 
HETATM   10  C1  UNL     1     -34.996   6.471   1.627  1.00 20.00     0.005 C 
HETATM   11  C2  UNL     1     -35.090   7.317   2.906  1.00 20.00     0.005 C 
HETATM   12  C7  UNL     1     -33.723   7.094   3.571  1.00 20.00    -0.010 C 
HETATM   13  C3  UNL     1     -33.474   5.620   3.226  1.00 20.00     0.010 C 
ENDBRANCH   3   9
TORSDOF 4
