REMARK  0 active torsions:
REMARK  status: ('A' for Active; 'I' for Inactive)
ROOT
HETATM    1  C1  UNL     1     -32.010   8.594   0.648  1.00 20.00     0.064 C 
HETATM    2  C2  UNL     1     -31.962   7.784   2.990  1.00 20.00     0.045 C 
HETATM    3  C3  UNL     1     -31.751   6.167   1.074  1.00 20.00     0.045 C 
HETATM    4  C4  UNL     1     -33.400   7.297   3.146  1.00 20.00     0.169 C 
HETATM    5  C5  UNL     1     -33.201   5.775   1.343  1.00 20.00     0.169 C 
HETATM    6  C6  UNL     1     -31.440   7.586   1.562  1.00 20.00     0.097 C 
HETATM    7  N7  UNL     1     -32.458   9.387  -0.071  1.00 20.00    -0.197 NA
HETATM    8  O8  UNL     1     -33.523   5.940   2.723  1.00 20.00    -0.391 OA
ENDROOT
TORSDOF 0
