REMARK  0 active torsions:
REMARK  status: ('A' for Active; 'I' for Inactive)
ROOT
HETATM    1  C1  UNL     1     -33.361   7.926   2.685  1.00 20.00     0.029 A 
HETATM    2  C2  UNL     1     -32.049   6.367   1.420  1.00 20.00     0.136 A 
HETATM    3  C3  UNL     1     -33.928   6.836   3.313  1.00 20.00    -0.032 A 
HETATM    4  C4  UNL     1     -32.398   7.687   1.707  1.00 20.00     0.029 A 
HETATM    5  C5  UNL     1     -33.510   5.558   2.959  1.00 20.00     0.040 A 
HETATM    6  C6  UNL     1     -34.943   6.794   4.406  1.00 20.00     0.041 C 
HETATM    7  C7  UNL     1     -34.206   4.521   3.794  1.00 20.00     0.060 C 
HETATM    8  C8  UNL     1     -35.400   5.328   4.325  1.00 20.00     0.011 C 
HETATM    9  N9  UNL     1     -32.580   5.281   2.030  1.00 20.00    -0.264 NA
HETATM   10 BR10 UNL     1     -31.582   9.119   0.792  1.00 20.00    -0.050 Br
ENDROOT
TORSDOF 0
