REMARK  5 active torsions:
REMARK  status: ('A' for Active; 'I' for Inactive)
REMARK    1  A    between atoms: C3_3  and  C6_6 
REMARK    2  A    between atoms: C5_5  and  C7_7 
REMARK    3  A    between atoms: C6_6  and  C8_8 
REMARK    4  A    between atoms: C7_7  and  C9_9 
REMARK    5  A    between atoms: C8_8  and  C9_9 
ROOT
HETATM    1  C1  UNL     1     -35.122   6.177   4.029  1.00 20.00     0.059 C 
HETATM    2  C5  UNL     1     -34.888   7.586   3.683  1.00 20.00     0.124 C 
HETATM    3  N10 UNL     1     -35.308   5.065   4.302  1.00 20.00    -0.197 NA
ENDROOT
BRANCH   2   4
HETATM    4  C7  UNL     1     -33.463   7.832   3.185  1.00 20.00     0.014 C 
BRANCH   4   5
HETATM    5  C9  UNL     1     -33.147   7.074   1.890  1.00 20.00     0.001 C 
BRANCH   5   6
HETATM    6  C8  UNL     1     -31.705   7.326   1.441  1.00 20.00     0.004 C 
BRANCH   6   7
HETATM    7  C6  UNL     1     -31.414   8.802   1.143  1.00 20.00     0.033 C 
BRANCH   7   8
HETATM    8  C3  UNL     1     -32.281   9.411   0.066  1.00 20.00    -0.093 C 
HETATM    9  C2  UNL     1     -33.030  10.500   0.301  1.00 20.00     0.014 C 
HETATM   10  C4  UNL     1     -32.240   8.768  -1.291  1.00 20.00     0.042 C 
ENDBRANCH   7   8
ENDBRANCH   6   7
ENDBRANCH   5   6
ENDBRANCH   4   5
ENDBRANCH   2   4
TORSDOF 5
