REMARK  0 active torsions:
REMARK  status: ('A' for Active; 'I' for Inactive)
ROOT
HETATM    1  C1  UNL     1     -33.057   4.864   2.972  1.00 20.00     0.011 C 
HETATM    2  C2  UNL     1     -34.202   5.373   3.852  1.00 20.00     0.011 C 
HETATM    3  C3  UNL     1     -33.013   5.435   1.558  1.00 20.00     0.075 C 
HETATM    4  C4  UNL     1     -34.537   6.861   3.817  1.00 20.00     0.075 C 
HETATM    5  C5  UNL     1     -32.769   8.163   2.148  1.00 20.00     0.147 C 
HETATM    6  S6  UNL     1     -31.826   6.811   1.404  1.00 20.00    -0.159 SA
HETATM    7  S7  UNL     1     -33.095   7.960   3.917  1.00 20.00    -0.159 SA
ENDROOT
TORSDOF 0
