REMARK  1 active torsions:
REMARK  status: ('A' for Active; 'I' for Inactive)
REMARK    1  A    between atoms: C3_3  and  C4_4 
ROOT
HETATM    1  C1  UNL     1     -34.886   5.534   4.108  1.00 20.00     0.087 C 
HETATM    2  C2  UNL     1     -35.195   6.874   3.750  1.00 20.00     0.093 C 
HETATM    3  C3  UNL     1     -34.368   7.605   2.990  1.00 20.00     0.011 C 
HETATM    4  N7  UNL     1     -34.636   4.439   4.401  1.00 20.00    -0.192 NA
ENDROOT
BRANCH   3   5
HETATM    5  C4  UNL     1     -33.113   7.098   2.480  1.00 20.00    -0.004 C 
HETATM    6  C5  UNL     1     -32.283   7.826   1.719  1.00 20.00    -0.031 C 
HETATM    7  C6  UNL     1     -32.555   9.237   1.312  1.00 20.00     0.036 C 
ENDBRANCH   3   5
TORSDOF 1
