REMARK  1 active torsions:
REMARK  status: ('A' for Active; 'I' for Inactive)
REMARK    1  A    between atoms: C3_3  and  C4_4 
ROOT
HETATM    1  C1  UNL     1     -34.323   6.352   3.080  1.00 20.00     0.087 C 
HETATM    2  C2  UNL     1     -33.191   5.907   2.345  1.00 20.00     0.093 C 
HETATM    3  C3  UNL     1     -32.505   6.738   1.548  1.00 20.00     0.011 C 
HETATM    4  N7  UNL     1     -35.248   6.711   3.683  1.00 20.00    -0.192 NA
ENDROOT
BRANCH   3   5
HETATM    5  C4  UNL     1     -32.855   8.130   1.373  1.00 20.00    -0.004 C 
HETATM    6  C5  UNL     1     -32.171   8.964   0.576  1.00 20.00    -0.031 C 
HETATM    7  C6  UNL     1     -32.522  10.403   0.386  1.00 20.00     0.036 C 
ENDBRANCH   3   5
TORSDOF 1
