REMARK  1 active torsions:
REMARK  status: ('A' for Active; 'I' for Inactive)
REMARK    1  A    between atoms: C3_3  and  C5_5 
ROOT
HETATM    1  C1  UNL     1     -32.784   6.483   1.766  1.00 20.00     0.025 A 
HETATM    2  C2  UNL     1     -32.246   7.442   0.860  1.00 20.00     0.028 A 
HETATM    3  C3  UNL     1     -33.699   7.043   2.630  1.00 20.00     0.089 A 
HETATM    4  C4  UNL     1     -32.771   8.699   1.066  1.00 20.00     0.052 A 
HETATM    5  S9  UNL     1     -33.907   8.719   2.347  1.00 20.00    -0.078 SA
HETATM    6 BR10 UNL     1     -32.300  10.239   0.058  1.00 20.00    -0.043 Br
ENDROOT
BRANCH   3   7
HETATM    7  C5  UNL     1     -34.471   6.386   3.707  1.00 20.00     0.423 C 
HETATM    8  F6  UNL     1     -34.220   5.044   3.836  1.00 20.00    -0.166 F 
HETATM    9  F7  UNL     1     -34.239   6.902   4.955  1.00 20.00    -0.166 F 
HETATM   10  F8  UNL     1     -35.826   6.478   3.530  1.00 20.00    -0.166 F 
ENDBRANCH   3   7
TORSDOF 1
