REMARK  2 active torsions:
REMARK  status: ('A' for Active; 'I' for Inactive)
REMARK    1  A    between atoms: C1_1  and  C6_6 
REMARK    2  A    between atoms: C5_5  and  N7_7 
ROOT
HETATM    1  C1  UNL     1     -32.830   7.217   1.930  1.00 20.00     0.108 C 
HETATM    2  C2  UNL     1     -31.942   6.121   1.395  1.00 20.00     0.075 C 
HETATM    3  N7  UNL     1     -32.938   8.393   1.412  1.00 20.00    -0.285 NA
ENDROOT
BRANCH   1   4
HETATM    4  C6  UNL     1     -33.651   6.899   3.149  1.00 20.00     0.430 C 
HETATM    5  F8  UNL     1     -33.443   5.628   3.575  1.00 20.00    -0.165 F 
HETATM    6  F9  UNL     1     -34.985   7.026   2.932  1.00 20.00    -0.165 F 
HETATM    7  F10 UNL     1     -33.343   7.718   4.187  1.00 20.00    -0.165 F 
ENDBRANCH   1   4
BRANCH   3   8
HETATM    8  C5  UNL     1     -32.153   8.702   0.227  1.00 20.00     0.100 C 
HETATM    9  C3  UNL     1     -32.919   9.703  -0.626  1.00 20.00     0.034 C 
HETATM   10  C4  UNL     1     -30.800   9.248   0.658  1.00 20.00     0.034 C 
ENDBRANCH   3   8
TORSDOF 2
