REMARK  2 active torsions:
REMARK  status: ('A' for Active; 'I' for Inactive)
REMARK    1  A    between atoms: C1_1  and  N7_7 
REMARK    2  A    between atoms: N6_6  and  N8_8 
ROOT
HETATM    1  C1  UNL     1     -33.263   8.035   2.271  1.00 20.00     0.220 C 
HETATM    2  N6  UNL     1     -33.619   6.974   2.925  1.00 20.00    -0.195 NA
ENDROOT
BRANCH   1   3
HETATM    3  N7  UNL     1     -32.329   8.136   1.255  1.00 20.00    -0.383 N 
HETATM    4  C2  UNL     1     -31.602   6.965   0.785  1.00 20.00     0.150 C 
HETATM    5  C3  UNL     1     -31.848   9.432   0.798  1.00 20.00     0.150 C 
ENDBRANCH   1   3
BRANCH   2   6
HETATM    6  N8  UNL     1     -34.574   7.227   3.858  1.00 20.00    -0.216 NA
HETATM    7  C4  UNL     1     -35.487   6.109   4.130  1.00 20.00     0.138 C 
HETATM    8  C5  UNL     1     -34.034   7.717   5.129  1.00 20.00     0.138 C 
ENDBRANCH   2   6
TORSDOF 2
