REMARK  3 active torsions:
REMARK  status: ('A' for Active; 'I' for Inactive)
REMARK    1  A    between atoms: C1_1  and  C5_5 
REMARK    2  A    between atoms: C5_5  and  C6_6 
REMARK    3  A    between atoms: C5_5  and  O8_8 
ROOT
HETATM    1  C5  UNL     1     -33.269   7.315   3.154  1.00 20.00     0.186 C 
ENDROOT
BRANCH   1   2
HETATM    2  C1  UNL     1     -34.298   6.354   3.720  1.00 20.00     0.263 C 
HETATM    3  O7  UNL     1     -35.489   6.365   3.425  1.00 20.00    -0.304 OA
ENDBRANCH   1   2
BRANCH   1   4
HETATM    4  C6  UNL     1     -32.560   6.780   1.881  1.00 20.00    -0.019 C 
HETATM    5  C2  UNL     1     -31.524   7.792   1.360  1.00 20.00     0.017 C 
HETATM    6  C3  UNL     1     -33.611   6.558   0.773  1.00 20.00     0.017 C 
HETATM    7  C4  UNL     1     -31.860   5.434   2.151  1.00 20.00     0.017 C 
ENDBRANCH   1   4
BRANCH   1   8
HETATM    8  O8  UNL     1     -32.314   7.577   4.174  1.00 20.00    -0.388 OA
HETATM    9  H20 UNL     1     -32.799   7.970   4.917  1.00 20.00     0.210 HD
ENDBRANCH   1   8
TORSDOF 3
