REMARK  0 active torsions:
REMARK  status: ('A' for Active; 'I' for Inactive)
ROOT
HETATM    1  C1  UNL     1     -32.565   6.518   0.679  1.00 20.00     0.013 A 
HETATM    2  C2  UNL     1     -32.426   7.602  -0.189  1.00 20.00     0.043 A 
HETATM    3  C3  UNL     1     -32.674   9.118   1.669  1.00 20.00     0.050 A 
HETATM    4  C4  UNL     1     -32.764   6.706   2.057  1.00 20.00    -0.020 A 
HETATM    5  C5  UNL     1     -32.811   8.034   2.549  1.00 20.00    -0.046 A 
HETATM    6  C6  UNL     1     -32.483   8.901   0.306  1.00 20.00     0.117 A 
HETATM    7  C7  UNL     1     -33.006   8.285   4.027  1.00 20.00     0.039 C 
HETATM    8  C8  UNL     1     -34.413   7.960   4.550  1.00 20.00     0.007 C 
HETATM    9  C9  UNL     1     -35.030   6.648   4.056  1.00 20.00     0.035 C 
HETATM   10  C10 UNL     1     -32.929   5.520   2.978  1.00 20.00     0.184 A 
HETATM   11  C11 UNL     1     -34.041   5.527   4.010  1.00 20.00     0.156 A 
HETATM   12  O12 UNL     1     -34.116   4.717   2.835  1.00 20.00    -0.370 OA
HETATM   13  F13 UNL     1     -32.350   9.942  -0.526  1.00 20.00    -0.206 F 
ENDROOT
TORSDOF 0
