REMARK  0 active torsions:
REMARK  status: ('A' for Active; 'I' for Inactive)
ROOT
HETATM    1  C1  UNL     1     -33.062   7.707   3.139  1.00 20.00     0.184 C 
HETATM    2  C2  UNL     1     -32.948   6.671   1.365  1.00 20.00     0.184 C 
HETATM    3  C3  UNL     1     -32.234   7.922   1.874  1.00 20.00     0.101 C 
HETATM    4  O4  UNL     1     -33.501   6.407   2.677  1.00 20.00    -0.389 OA
HETATM    5  I5  UNL     1     -32.702   9.874   0.704  1.00 20.00    -0.080 I 
ENDROOT
TORSDOF 0
