REMARK  0 active torsions:
REMARK  status: ('A' for Active; 'I' for Inactive)
ROOT
HETATM    1  C1  UNL     1     -33.787   7.736   3.619  1.00 20.00     0.009 A 
HETATM    2  C2  UNL     1     -34.033   6.444   4.082  1.00 20.00     0.024 A 
HETATM    3  C3  UNL     1     -32.958   5.534   2.121  1.00 20.00     0.033 A 
HETATM    4  C4  UNL     1     -33.131   7.937   2.398  1.00 20.00    -0.048 A 
HETATM    5  C5  UNL     1     -32.696   6.827   1.651  1.00 20.00    -0.022 A 
HETATM    6  C6  UNL     1     -33.620   5.344   3.333  1.00 20.00     0.034 A 
HETATM    7  C7  UNL     1     -32.838   9.336   1.919  1.00 20.00     0.069 C 
HETATM    8  C8  UNL     1     -32.012   7.022   0.320  1.00 20.00     0.308 C 
HETATM    9  C9  UNL     1     -32.464   9.383   0.436  1.00 20.00     0.274 C 
HETATM   10  N10 UNL     1     -31.456   8.367   0.136  1.00 20.00     0.087 N 
HETATM   11 CL11 UNL     1     -33.928   3.750   3.905  1.00 20.00    -0.084 Cl
HETATM   12  H21 UNL     1     -30.657   8.490   0.759  1.00 20.00     0.316 HD
ENDROOT
TORSDOF 0
