REMARK  1 active torsions:
REMARK  status: ('A' for Active; 'I' for Inactive)
REMARK    1  A    between atoms: C2_2  and  C4_4 
ROOT
HETATM    1  C1  UNL     1     -32.431   7.856   1.270  1.00 20.00     0.146 C 
HETATM    2  C4  UNL     1     -32.714   6.651   2.049  1.00 20.00     0.388 C 
HETATM    3  N5  UNL     1     -32.203   8.810   0.651  1.00 20.00    -0.190 NA
HETATM    4  F9  UNL     1     -32.925   5.622   1.184  1.00 20.00    -0.181 F 
HETATM    5  F10 UNL     1     -31.596   6.325   2.752  1.00 20.00    -0.181 F 
ENDROOT
BRANCH   2   6
HETATM    6  C2  UNL     1     -33.908   6.847   2.924  1.00 20.00     0.247 C 
HETATM    7  C3  UNL     1     -34.414   5.927   3.752  1.00 20.00     0.308 C 
HETATM    8  F7  UNL     1     -35.500   6.196   4.506  1.00 20.00    -0.170 F 
HETATM    9  F8  UNL     1     -33.833   4.712   3.833  1.00 20.00    -0.170 F 
HETATM   10  F6  UNL     1     -34.547   8.039   2.855  1.00 20.00    -0.197 F 
ENDBRANCH   2   6
TORSDOF 1
