REMARK  0 active torsions:
REMARK  status: ('A' for Active; 'I' for Inactive)
ROOT
HETATM    1  C1  UNL     1     -33.947   5.068   3.763  1.00 20.00     0.064 C 
HETATM    2  C2  UNL     1     -33.874   8.316   1.949  1.00 20.00     0.011 C 
HETATM    3  C3  UNL     1     -31.753   7.290   1.614  1.00 20.00     0.010 C 
HETATM    4  C4  UNL     1     -34.035   6.487   3.417  1.00 20.00     0.101 C 
HETATM    5  C5  UNL     1     -32.505   8.178   2.624  1.00 20.00    -0.009 C 
HETATM    6  C6  UNL     1     -34.106   6.797   1.904  1.00 20.00     0.007 C 
HETATM    7  C7  UNL     1     -32.866   6.370   1.074  1.00 20.00    -0.013 C 
HETATM    8  C8  UNL     1     -32.817   7.321   3.879  1.00 20.00     0.003 C 
HETATM    9  C9  UNL     1     -32.488   4.899   1.069  1.00 20.00     0.010 C 
HETATM   10  C10 UNL     1     -33.140   8.180   5.099  1.00 20.00     0.011 C 
HETATM   11  N11 UNL     1     -33.878   3.943   4.037  1.00 20.00    -0.197 NA
ENDROOT
TORSDOF 0
