REMARK  1 active torsions:
REMARK  status: ('A' for Active; 'I' for Inactive)
REMARK    1  A    between atoms: C10_10  and  O11_11 
ROOT
HETATM    1  C1  UNL     1     -33.966   7.940   4.552  1.00 20.00    -0.030 C 
HETATM    2  C2  UNL     1     -34.540   7.074   3.688  1.00 20.00    -0.025 C 
HETATM    3  C3  UNL     1     -32.510   8.230   4.177  1.00 20.00     0.032 C 
HETATM    4  C4  UNL     1     -31.722   6.019   1.417  1.00 20.00     0.013 C 
HETATM    5  C5  UNL     1     -33.549   7.061   0.262  1.00 20.00     0.037 C 
HETATM    6  C6  UNL     1     -33.462   6.568   2.803  1.00 20.00     0.017 C 
HETATM    7  C7  UNL     1     -32.645   7.867   2.717  1.00 20.00     0.003 C 
HETATM    8  C8  UNL     1     -33.277   6.029   1.382  1.00 20.00    -0.004 C 
HETATM    9  C9  UNL     1     -31.611   7.541   1.622  1.00 20.00     0.020 C 
HETATM   10  C10 UNL     1     -32.274   7.949   0.275  1.00 20.00     0.123 C 
ENDROOT
BRANCH  10  11
HETATM   11  O11 UNL     1     -32.587   9.324   0.182  1.00 20.00    -0.395 OA
HETATM   12  H25 UNL     1     -33.064   9.455  -0.656  1.00 20.00     0.210 HD
ENDBRANCH  10  11
TORSDOF 1
