REMARK  1 active torsions:
REMARK  status: ('A' for Active; 'I' for Inactive)
REMARK    1  A    between atoms: C3_3  and  C4_4 
ROOT
HETATM    1  C1  UNL     1     -34.101   5.024   3.231  1.00 20.00     0.087 A 
HETATM    2  C2  UNL     1     -35.192   6.776   4.473  1.00 20.00     0.166 A 
HETATM    3  C3  UNL     1     -33.648   6.304   2.989  1.00 20.00     0.125 A 
HETATM    4  N5  UNL     1     -34.272   7.310   3.700  1.00 20.00    -0.249 NA
HETATM    5  S7  UNL     1     -35.359   5.069   4.396  1.00 20.00    -0.092 SA
ENDROOT
BRANCH   3   6
HETATM    6  C4  UNL     1     -32.595   6.617   2.064  1.00 20.00     0.271 C 
HETATM    7  O6  UNL     1     -32.033   5.693   1.421  1.00 20.00    -0.272 OA
HETATM    8 CL8  UNL     1     -32.050   8.292   1.794  1.00 20.00    -0.037 Cl
ENDBRANCH   3   6
TORSDOF 1
