REMARK  1 active torsions:
REMARK  status: ('A' for Active; 'I' for Inactive)
REMARK    1  A    between atoms: C1_1  and  C2_2 
ROOT
HETATM    1  C1  UNL     1     -33.678   6.688   3.202  1.00 20.00     0.346 C 
HETATM    2  O3  UNL     1     -34.438   5.825   3.614  1.00 20.00    -0.255 OA
HETATM    3  F4  UNL     1     -33.372   7.684   4.045  1.00 20.00    -0.160 F 
ENDROOT
BRANCH   1   4
HETATM    4  C2  UNL     1     -33.113   6.740   1.820  1.00 20.00     0.369 C 
HETATM    5  F5  UNL     1     -32.377   5.633   1.540  1.00 20.00    -0.222 F 
HETATM    6 CL6  UNL     1     -32.091   8.175   1.696  1.00 20.00    -0.078 Cl
ENDBRANCH   1   4
TORSDOF 1
