REMARK  0 active torsions:
REMARK  status: ('A' for Active; 'I' for Inactive)
ROOT
HETATM    1  C1  UNL     1     -34.249   5.282   3.918  1.00 20.00     0.101 C 
HETATM    2  C2  UNL     1     -35.662   7.011   2.857  1.00 20.00     0.067 C 
HETATM    3  C3  UNL     1     -34.328   6.690   3.518  1.00 20.00     0.197 C 
HETATM    4  N4  UNL     1     -34.189   4.167   4.234  1.00 20.00    -0.194 NA
HETATM    5 CL5  UNL     1     -34.121   7.694   4.978  1.00 20.00    -0.085 Cl
HETATM    6 CL6  UNL     1     -32.995   7.020   2.380  1.00 20.00    -0.085 Cl
ENDROOT
TORSDOF 0
