REMARK  0 active torsions:
REMARK  status: ('A' for Active; 'I' for Inactive)
ROOT
HETATM    1  C1  UNL     1     -31.910   7.723   1.732  1.00 20.00     0.015 A 
HETATM    2  C2  UNL     1     -31.684   6.555   0.993  1.00 20.00     0.025 A 
HETATM    3  C3  UNL     1     -33.420   8.713   3.614  1.00 20.00     0.031 A 
HETATM    4  C4  UNL     1     -33.467   5.401   2.174  1.00 20.00     0.054 A 
HETATM    5  C5  UNL     1     -34.444   8.140   4.332  1.00 20.00     0.091 A 
HETATM    6  C6  UNL     1     -32.928   7.734   2.706  1.00 20.00    -0.008 A 
HETATM    7  C7  UNL     1     -33.681   6.575   2.904  1.00 20.00     0.045 A 
HETATM    8  C8  UNL     1     -32.452   5.413   1.213  1.00 20.00     0.036 A 
HETATM    9  C9  UNL     1     -35.576   5.924   4.418  1.00 20.00     0.155 C 
HETATM   10  N10 UNL     1     -34.594   6.850   3.897  1.00 20.00    -0.360 N 
HETATM   11 CL11 UNL     1     -32.147   3.992   0.287  1.00 20.00    -0.084 Cl
ENDROOT
TORSDOF 0
