REMARK  3 active torsions:
REMARK  status: ('A' for Active; 'I' for Inactive)
REMARK    1  A    between atoms: C1_1  and  C3_3 
REMARK    2  A    between atoms: C3_3  and  O9_9 
REMARK    3  A    between atoms: C7_7  and  O9_9 
ROOT
HETATM    1  C3  UNL     1     -33.678   6.477   2.620  1.00 20.00     0.282 C 
HETATM    2  O8  UNL     1     -33.274   5.667   1.801  1.00 20.00    -0.260 OA
ENDROOT
BRANCH   1   3
HETATM    3  C1  UNL     1     -34.880   6.312   3.466  1.00 20.00     0.077 C 
HETATM    4  C2  UNL     1     -34.962   5.281   4.317  1.00 20.00    -0.025 C 
HETATM    5  C4  UNL     1     -33.887   4.256   4.472  1.00 20.00     0.036 C 
ENDBRANCH   1   3
BRANCH   1   6
HETATM    6  O9  UNL     1     -33.122   7.681   2.924  1.00 20.00    -0.314 OA
BRANCH   6   7
HETATM    7  C7  UNL     1     -31.937   8.013   2.193  1.00 20.00     0.124 C 
HETATM    8  C5  UNL     1     -32.326   8.727   0.907  1.00 20.00     0.040 C 
HETATM    9  C6  UNL     1     -31.034   8.871   3.066  1.00 20.00     0.040 C 
ENDBRANCH   6   7
ENDBRANCH   1   6
TORSDOF 3
