REMARK  0 active torsions:
REMARK  status: ('A' for Active; 'I' for Inactive)
ROOT
HETATM    1  C1  UNL     1     -34.842   6.056   4.052  1.00 20.00     0.179 A 
HETATM    2  C2  UNL     1     -33.856   6.401   3.167  1.00 20.00    -0.007 A 
HETATM    3  C3  UNL     1     -33.395   7.648   3.645  1.00 20.00     0.070 A 
HETATM    4  C4  UNL     1     -33.328   5.735   1.953  1.00 20.00     0.043 C 
HETATM    5  C5  UNL     1     -32.292   8.416   3.015  1.00 20.00     0.062 C 
HETATM    6  C6  UNL     1     -31.982   6.354   1.530  1.00 20.00     0.005 C 
HETATM    7  C7  UNL     1     -32.004   7.894   1.594  1.00 20.00     0.006 C 
HETATM    8  N8  UNL     1     -34.039   8.040   4.746  1.00 20.00    -0.133 NA
HETATM    9  O9  UNL     1     -34.960   7.026   4.999  1.00 20.00    -0.225 OA
ENDROOT
TORSDOF 0
