REMARK  3 active torsions:
REMARK  status: ('A' for Active; 'I' for Inactive)
REMARK    1  A    between atoms: C3_3  and  C6_6 
REMARK    2  A    between atoms: C4_4  and  C7_7 
REMARK    3  A    between atoms: C5_5  and  C8_8 
ROOT
HETATM    1  C1  UNL     1     -34.521   5.388   3.810  1.00 20.00     0.012 C 
HETATM    2  C2  UNL     1     -34.210   7.567   4.632  1.00 20.00     0.012 C 
HETATM    3  C3  UNL     1     -34.981   6.823   3.540  1.00 20.00    -0.005 C 
HETATM    4  C4  UNL     1     -33.059   5.711   3.523  1.00 20.00     0.022 C 
HETATM    5  C5  UNL     1     -32.852   7.162   4.070  1.00 20.00     0.022 C 
ENDROOT
BRANCH   3   6
HETATM    6  C6  UNL     1     -34.189   7.195   2.255  1.00 20.00     0.048 C 
HETATM    7  C7  UNL     1     -33.135   6.071   2.043  1.00 20.00     0.133 C 
HETATM    8  O9  UNL     1     -32.129   7.091   1.750  1.00 20.00    -0.379 OA
HETATM    9  C8  UNL     1     -32.876   7.882   2.727  1.00 20.00     0.133 C 
ENDBRANCH   3   6
TORSDOF 3
