REMARK  3 active torsions:
REMARK  status: ('A' for Active; 'I' for Inactive)
REMARK    1  A    between atoms: C3_3  and  C5_5 
REMARK    2  A    between atoms: C4_4  and  C6_6 
REMARK    3  A    between atoms: C5_5  and  C6_6 
ROOT
HETATM    1  C1  UNL     1     -33.623   7.746   3.724  1.00 20.00     0.087 C 
HETATM    2  C3  UNL     1     -32.713   7.836   2.636  1.00 20.00     0.093 C 
HETATM    3  N7  UNL     1     -34.365   7.677   4.613  1.00 20.00    -0.192 NA
ENDROOT
BRANCH   2   4
HETATM    4  C5  UNL     1     -32.548   6.822   1.776  1.00 20.00     0.011 C 
BRANCH   4   5
HETATM    5  C6  UNL     1     -31.632   6.878   0.658  1.00 20.00     0.011 C 
BRANCH   5   6
HETATM    6  C4  UNL     1     -31.467   7.974  -0.096  1.00 20.00     0.093 C 
HETATM    7  C2  UNL     1     -32.194   9.168   0.160  1.00 20.00     0.087 C 
HETATM    8  N8  UNL     1     -32.786  10.144   0.366  1.00 20.00    -0.192 NA
ENDBRANCH   5   6
ENDBRANCH   4   5
ENDBRANCH   2   4
TORSDOF 3
