REMARK  3 active torsions:
REMARK  status: ('A' for Active; 'I' for Inactive)
REMARK    1  A    between atoms: C3_3  and  C8_8 
REMARK    2  A    between atoms: C7_7  and  C8_8 
REMARK    3  A    between atoms: N9_9  and  O10_10 
ROOT
HETATM    1  C1  UNL     1     -33.393   6.109   2.637  1.00 20.00     0.043 C 
HETATM    2  C4  UNL     1     -34.428   6.274   3.712  1.00 20.00     0.057 C 
HETATM    3  C5  UNL     1     -34.502   7.791   3.833  1.00 20.00     0.006 C 
HETATM    4  C6  UNL     1     -33.100   8.276   3.473  1.00 20.00     0.011 C 
HETATM    5  C7  UNL     1     -32.650   7.380   2.315  1.00 20.00     0.039 C 
HETATM    6  N9  UNL     1     -33.144   4.986   2.053  1.00 20.00    -0.145 NA
ENDROOT
BRANCH   5   7
HETATM    7  C8  UNL     1     -33.068   7.915   0.953  1.00 20.00     0.036 C 
BRANCH   7   8
HETATM    8  C3  UNL     1     -32.286   9.139   0.584  1.00 20.00    -0.036 C 
HETATM    9  C2  UNL     1     -32.840  10.325   0.304  1.00 20.00     0.007 C 
ENDBRANCH   7   8
ENDBRANCH   5   7
BRANCH   6  10
HETATM   10  O10 UNL     1     -32.133   5.194   1.113  1.00 20.00    -0.266 OA
HETATM   11  H23 UNL     1     -32.028   4.302   0.740  1.00 20.00     0.247 HD
ENDBRANCH   6  10
TORSDOF 3
