REMARK  3 active torsions:
REMARK  status: ('A' for Active; 'I' for Inactive)
REMARK    1  A    between atoms: C3_3  and  C7_7 
REMARK    2  A    between atoms: C4_4  and  C5_5 
REMARK    3  A    between atoms: C7_7  and  O9_9 
ROOT
HETATM    1  C1  UNL     1     -33.206   8.107   3.014  1.00 20.00     0.031 A 
HETATM    2  C2  UNL     1     -31.903   6.826   1.579  1.00 20.00     0.060 A 
HETATM    3  C3  UNL     1     -32.144   8.092   2.064  1.00 20.00    -0.027 A 
HETATM    4  C4  UNL     1     -33.736   6.852   3.219  1.00 20.00     0.043 A 
HETATM    5  S10 UNL     1     -32.953   5.662   2.268  1.00 20.00    -0.098 SA
ENDROOT
BRANCH   3   6
HETATM    6  C7  UNL     1     -31.390   9.297   1.648  1.00 20.00     0.206 C 
BRANCH   6   7
HETATM    7  O9  UNL     1     -31.533   9.495   0.244  1.00 20.00    -0.391 OA
HETATM    8  C6  UNL     1     -32.773  10.113  -0.068  1.00 20.00     0.201 C 
ENDBRANCH   6   7
ENDBRANCH   3   6
BRANCH   4   9
HETATM    9  C5  UNL     1     -34.800   6.460   4.085  1.00 20.00     0.277 C 
HETATM   10  O8  UNL     1     -35.213   5.287   4.202  1.00 20.00    -0.301 OA
ENDBRANCH   4   9
TORSDOF 3
