REMARK  0 active torsions:
REMARK  status: ('A' for Active; 'I' for Inactive)
ROOT
HETATM    1  C1  UNL     1     -33.505   7.600   4.530  1.00 20.00     0.086 C 
HETATM    2  C2  UNL     1     -33.957   7.098   0.865  1.00 20.00     0.017 C 
HETATM    3  C3  UNL     1     -33.191   5.844   2.745  1.00 20.00     0.049 C 
HETATM    4  C4  UNL     1     -32.729   6.293   1.332  1.00 20.00     0.020 C 
HETATM    5  C5  UNL     1     -33.874   8.072   2.064  1.00 20.00     0.055 C 
HETATM    6  C6  UNL     1     -31.666   7.364   1.520  1.00 20.00     0.155 A 
HETATM    7  C7  UNL     1     -32.425   8.557   1.993  1.00 20.00     0.158 A 
HETATM    8  C8  UNL     1     -34.002   7.074   3.254  1.00 20.00     0.132 C 
HETATM    9  N9  UNL     1     -33.111   8.016   5.539  1.00 20.00    -0.195 NA
HETATM   10  O10 UNL     1     -31.768   8.545   0.721  1.00 20.00    -0.374 OA
HETATM   11 CL11 UNL     1     -35.718   6.633   3.528  1.00 20.00    -0.102 Cl
ENDROOT
TORSDOF 0
