REMARK  1 active torsions:
REMARK  status: ('A' for Active; 'I' for Inactive)
REMARK    1  A    between atoms: C10_10  and  O12_12 
ROOT
HETATM    1  C1  UNL     1     -35.725   7.044   2.636  1.00 20.00     0.005 C 
HETATM    2  C2  UNL     1     -35.729   6.116   3.858  1.00 20.00     0.005 C 
HETATM    3  C3  UNL     1     -33.140   6.028   1.327  1.00 20.00     0.008 C 
HETATM    4  C4  UNL     1     -33.545   4.644   1.820  1.00 20.00     0.033 C 
HETATM    5  C5  UNL     1     -34.355   7.982   4.323  1.00 20.00     0.010 C 
HETATM    6  C6  UNL     1     -34.408   7.822   2.798  1.00 20.00    -0.010 C 
HETATM    7  C7  UNL     1     -34.413   6.467   4.571  1.00 20.00    -0.007 C 
HETATM    8  C8  UNL     1     -33.162   6.937   2.554  1.00 20.00    -0.004 C 
HETATM    9  C9  UNL     1     -33.157   6.011   3.792  1.00 20.00     0.023 C 
HETATM   10  C10 UNL     1     -33.033   4.589   3.255  1.00 20.00     0.125 C 
ENDROOT
BRANCH  10  11
HETATM   11  O12 UNL     1     -33.730   3.648   4.045  1.00 20.00    -0.390 OA
HETATM   12  C11 UNL     1     -32.987   3.271   5.200  1.00 20.00     0.202 C 
ENDBRANCH  10  11
TORSDOF 1
