REMARK  3 active torsions:
REMARK  status: ('A' for Active; 'I' for Inactive)
REMARK    1  A    between atoms: C2_2  and  C7_7 
REMARK    2  A    between atoms: C3_3  and  C8_8 
REMARK    3  A    between atoms: C8_8  and  C9_9 
ROOT
HETATM    1  C1  UNL     1     -33.367   6.107   1.487  1.00 20.00     0.095 C 
HETATM    2  C2  UNL     1     -33.279   7.077   2.539  1.00 20.00     0.024 C 
HETATM    3  C3  UNL     1     -34.154   7.048   3.575  1.00 20.00    -0.067 C 
HETATM    4  C4  UNL     1     -34.134   8.031   4.726  1.00 20.00     0.044 C 
HETATM    5  N10 UNL     1     -33.426   5.328   0.628  1.00 20.00    -0.192 NA
ENDROOT
BRANCH   2   6
HETATM    6  C7  UNL     1     -32.196   8.128   2.379  1.00 20.00     0.046 C 
HETATM    7  C5  UNL     1     -31.365   7.909   1.121  1.00 20.00     0.011 C 
ENDBRANCH   2   6
BRANCH   3   8
HETATM    8  C8  UNL     1     -35.286   6.038   3.679  1.00 20.00     0.034 C 
BRANCH   8   9
HETATM    9  C9  UNL     1     -34.885   4.801   4.487  1.00 20.00    -0.000 C 
HETATM   10  C6  UNL     1     -33.688   4.097   3.867  1.00 20.00     0.005 C 
ENDBRANCH   8   9
ENDBRANCH   3   8
TORSDOF 3
