REMARK  0 active torsions:
REMARK  status: ('A' for Active; 'I' for Inactive)
ROOT
HETATM    1  C1  UNL     1     -34.210   6.370   2.935  1.00 20.00     0.096 C 
HETATM    2  C2  UNL     1     -33.264   7.303   3.002  1.00 20.00     0.096 C 
HETATM    3 CL3  UNL     1     -35.323   6.087   4.206  1.00 20.00    -0.096 Cl
HETATM    4 CL4  UNL     1     -32.150   7.584   1.732  1.00 20.00    -0.096 Cl
ENDROOT
TORSDOF 0
