REMARK  0 active torsions:
REMARK  status: ('A' for Active; 'I' for Inactive)
ROOT
HETATM    1  C1  UNL     1     -32.371   5.302   1.475  1.00 20.00     0.014 A 
HETATM    2  C2  UNL     1     -31.673   6.282   0.887  1.00 20.00     0.075 A 
HETATM    3  C3  UNL     1     -33.362   5.584   2.493  1.00 20.00    -0.035 A 
HETATM    4  C4  UNL     1     -33.593   6.861   2.851  1.00 20.00     0.018 A 
HETATM    5  C5  UNL     1     -31.918   7.697   1.283  1.00 20.00     0.245 A 
HETATM    6  C6  UNL     1     -34.083   4.418   3.114  1.00 20.00     0.040 C 
HETATM    7  C7  UNL     1     -34.614   7.253   3.882  1.00 20.00     0.057 C 
HETATM    8  C8  UNL     1     -34.838   4.794   4.393  1.00 20.00     0.005 C 
HETATM    9  C9  UNL     1     -35.579   6.117   4.229  1.00 20.00     0.006 C 
HETATM   10  N10 UNL     1     -32.884   7.885   2.257  1.00 20.00    -0.327 N 
HETATM   11  O11 UNL     1     -31.285   8.607   0.756  1.00 20.00    -0.268 OA
HETATM   12  H22 UNL     1     -33.084   8.837   2.553  1.00 20.00     0.169 HD
ENDROOT
TORSDOF 0
