REMARK  0 active torsions:
REMARK  status: ('A' for Active; 'I' for Inactive)
ROOT
HETATM    1  C1  UNL     1     -32.115   7.810   1.857  1.00 20.00     0.086 C 
HETATM    2  C2  UNL     1     -34.753   7.722   4.161  1.00 20.00    -0.025 C 
HETATM    3  C3  UNL     1     -33.459   7.538   4.464  1.00 20.00    -0.023 C 
HETATM    4  C4  UNL     1     -34.282   5.491   3.801  1.00 20.00     0.020 C 
HETATM    5  C5  UNL     1     -34.459   6.865   1.854  1.00 20.00     0.050 C 
HETATM    6  C6  UNL     1     -35.150   6.611   3.219  1.00 20.00     0.011 C 
HETATM    7  C7  UNL     1     -32.988   6.314   3.703  1.00 20.00     0.046 C 
HETATM    8  C8  UNL     1     -32.948   6.646   2.185  1.00 20.00     0.133 C 
HETATM    9  N9  UNL     1     -31.456   8.729   1.599  1.00 20.00    -0.195 NA
HETATM   10 CL10 UNL     1     -32.287   5.266   1.253  1.00 20.00    -0.102 Cl
ENDROOT
TORSDOF 0
