REMARK  4 active torsions:
REMARK  status: ('A' for Active; 'I' for Inactive)
REMARK    1  A    between atoms: C1_1  and  O10_10 
REMARK    2  A    between atoms: C1_1  and  O11_11 
REMARK    3  A    between atoms: C7_7  and  O10_10 
REMARK    4  A    between atoms: C8_8  and  O11_11 
ROOT
HETATM    1  C1  UNL     1     -33.725   7.322   3.199  1.00 20.00     0.407 C 
HETATM    2  O9  UNL     1     -33.543   7.817   4.304  1.00 20.00    -0.229 OA
ENDROOT
BRANCH   1   3
HETATM    3  O10 UNL     1     -34.122   6.043   2.951  1.00 20.00    -0.293 OA
BRANCH   3   4
HETATM    4  C7  UNL     1     -34.339   5.227   4.107  1.00 20.00     0.126 C 
HETATM    5  C2  UNL     1     -35.779   5.387   4.569  1.00 20.00     0.040 C 
HETATM    6  C3  UNL     1     -34.009   3.781   3.769  1.00 20.00     0.040 C 
ENDBRANCH   3   4
ENDBRANCH   1   3
BRANCH   1   7
HETATM    7  O11 UNL     1     -33.565   7.957   2.003  1.00 20.00    -0.288 OA
BRANCH   7   8
HETATM    8  C8  UNL     1     -32.255   8.459   1.738  1.00 20.00     0.062 C 
HETATM    9  C4  UNL     1     -31.274   7.287   1.750  1.00 20.00     0.046 C 
HETATM   10  C5  UNL     1     -32.285   9.120   0.362  1.00 20.00     0.046 C 
HETATM   11  C6  UNL     1     -31.897   9.480   2.817  1.00 20.00     0.046 C 
ENDBRANCH   7   8
ENDBRANCH   1   7
TORSDOF 4
