REMARK  5 active torsions:
REMARK  status: ('A' for Active; 'I' for Inactive)
REMARK    1  A    between atoms: C2_2  and  C4_4 
REMARK    2  A    between atoms: C4_4  and  C6_6 
REMARK    3  A    between atoms: C5_5  and  C6_6 
REMARK    4  A    between atoms: C5_5  and  C7_7 
REMARK    5  A    between atoms: C6_6  and  O8_8 
ROOT
HETATM    1  C6  UNL     1     -32.320   7.939   1.601  1.00 20.00     0.130 C 
ENDROOT
BRANCH   1   2
HETATM    2  C4  UNL     1     -33.357   9.020   1.259  1.00 20.00     0.065 C 
BRANCH   2   3
HETATM    3  C2  UNL     1     -32.848  10.044   0.268  1.00 20.00    -0.091 C 
HETATM    4  C1  UNL     1     -32.816  11.352   0.564  1.00 20.00     0.014 C 
HETATM    5  C3  UNL     1     -32.420   9.538  -1.080  1.00 20.00     0.042 C 
ENDBRANCH   2   3
ENDBRANCH   1   2
BRANCH   1   6
HETATM    6  C5  UNL     1     -33.004   6.715   2.225  1.00 20.00     0.149 C 
BRANCH   6   7
HETATM    7  C7  UNL     1     -33.773   7.044   3.490  1.00 20.00     0.390 C 
HETATM    8  F9  UNL     1     -32.963   7.519   4.458  1.00 20.00    -0.171 F 
HETATM    9  F10 UNL     1     -34.708   7.989   3.240  1.00 20.00    -0.171 F 
HETATM   10  F11 UNL     1     -34.411   5.957   3.973  1.00 20.00    -0.171 F 
ENDBRANCH   6   7
ENDBRANCH   1   6
BRANCH   1  11
HETATM   11  O8  UNL     1     -31.390   8.493   2.531  1.00 20.00    -0.395 OA
HETATM   12  H22 UNL     1     -31.904   8.753   3.311  1.00 20.00     0.210 HD
ENDBRANCH   1  11
TORSDOF 5
