REMARK  1 active torsions:
REMARK  status: ('A' for Active; 'I' for Inactive)
REMARK    1  A    between atoms: C1_1  and  C3_3 
ROOT
HETATM    1  C2  UNL     1     -31.644   6.735   1.295  1.00 20.00     0.019 C 
HETATM    2  C3  UNL     1     -33.598   6.968   2.240  1.00 20.00     0.070 C 
HETATM    3  C4  UNL     1     -32.774   5.750   1.698  1.00 20.00    -0.036 C 
HETATM    4  C5  UNL     1     -32.312   7.857   2.134  1.00 20.00    -0.036 C 
HETATM    5  C7  UNL     1     -33.435   5.076   0.493  1.00 20.00     0.015 C 
HETATM    6  C8  UNL     1     -32.327   4.702   2.718  1.00 20.00     0.015 C 
HETATM    7  C9  UNL     1     -32.544   9.142   1.334  1.00 20.00     0.015 C 
HETATM    8  C10 UNL     1     -31.569   8.165   3.434  1.00 20.00     0.015 C 
ENDROOT
BRANCH   2   9
HETATM    9  C1  UNL     1     -34.310   6.845   3.591  1.00 20.00     0.128 C 
HETATM   10  C6  UNL     1     -34.908   5.504   3.922  1.00 20.00     0.091 C 
HETATM   11  O11 UNL     1     -34.389   7.796   4.368  1.00 20.00    -0.298 OA
ENDBRANCH   2   9
TORSDOF 1
