REMARK  4 active torsions:
REMARK  status: ('A' for Active; 'I' for Inactive)
REMARK    1  A    between atoms: C6_6  and  C7_7 
REMARK    2  A    between atoms: C7_7  and  C9_9 
REMARK    3  A    between atoms: C8_8  and  C9_9 
REMARK    4  A    between atoms: C8_8  and  C10_10 
ROOT
HETATM    1  C1  UNL     1     -34.163   5.321   3.856  1.00 20.00     0.068 C 
HETATM    2  C4  UNL     1     -35.844   6.908   2.990  1.00 20.00     0.031 C 
HETATM    3  C5  UNL     1     -34.665   7.325   5.152  1.00 20.00     0.031 C 
HETATM    4  C10 UNL     1     -34.504   6.757   3.725  1.00 20.00     0.042 C 
HETATM    5  N11 UNL     1     -33.900   4.197   3.970  1.00 20.00    -0.196 NA
ENDROOT
BRANCH   4   6
HETATM    6  C8  UNL     1     -33.360   7.540   3.018  1.00 20.00     0.028 C 
BRANCH   6   7
HETATM    7  C9  UNL     1     -32.712   6.931   1.747  1.00 20.00    -0.017 C 
HETATM    8  C3  UNL     1     -33.706   6.155   0.878  1.00 20.00     0.010 C 
BRANCH   7   9
HETATM    9  C7  UNL     1     -32.058   8.029   0.872  1.00 20.00     0.004 C 
BRANCH   9  10
HETATM   10  C6  UNL     1     -33.050   9.046   0.301  1.00 20.00    -0.004 C 
HETATM   11  C2  UNL     1     -32.340  10.109  -0.525  1.00 20.00     0.005 C 
ENDBRANCH   9  10
ENDBRANCH   7   9
ENDBRANCH   6   7
ENDBRANCH   4   6
TORSDOF 4
