REMARK  3 active torsions:
REMARK  status: ('A' for Active; 'I' for Inactive)
REMARK    1  A    between atoms: C3_3  and  C8_8 
REMARK    2  A    between atoms: C8_8  and  C9_9 
REMARK    3  A    between atoms: C9_9  and  O11_11 
ROOT
HETATM    1  C1  UNL     1     -34.658   6.737   3.827  1.00 20.00     0.088 C 
HETATM    2  C2  UNL     1     -33.639   7.520   3.219  1.00 20.00     0.096 C 
HETATM    3  C3  UNL     1     -32.824   7.077   2.243  1.00 20.00    -0.071 C 
HETATM    4  C4  UNL     1     -32.906   5.701   1.635  1.00 20.00     0.044 C 
HETATM    5  N10 UNL     1     -35.491   6.104   4.329  1.00 20.00    -0.192 NA
ENDROOT
BRANCH   3   6
HETATM    6  C8  UNL     1     -31.772   8.006   1.656  1.00 20.00     0.071 C 
BRANCH   6   7
HETATM    7  C9  UNL     1     -32.190   8.800   0.397  1.00 20.00     0.056 C 
HETATM    8  C5  UNL     1     -31.019   9.680  -0.060  1.00 20.00     0.046 C 
HETATM    9  C6  UNL     1     -32.640   7.896  -0.754  1.00 20.00     0.046 C 
BRANCH   7  10
HETATM   10  O11 UNL     1     -33.265   9.676   0.742  1.00 20.00    -0.385 OA
HETATM   11  C7  UNL     1     -32.793  10.825   1.426  1.00 20.00     0.202 C 
ENDBRANCH   7  10
ENDBRANCH   6   7
ENDBRANCH   3   6
TORSDOF 3
