REMARK  3 active torsions:
REMARK  status: ('A' for Active; 'I' for Inactive)
REMARK    1  A    between atoms: C7_7  and  C9_9 
REMARK    2  A    between atoms: C8_8  and  C9_9 
REMARK    3  A    between atoms: C9_9  and  O11_11 
ROOT
HETATM    1  C1  UNL     1     -33.443   7.844   4.259  1.00 20.00     0.027 C 
HETATM    2  C2  UNL     1     -32.757   8.622   3.140  1.00 20.00     0.011 C 
HETATM    3  C5  UNL     1     -34.366   6.777   3.685  1.00 20.00     0.167 C 
HETATM    4  C6  UNL     1     -33.104   6.605   1.686  1.00 20.00     0.174 C 
HETATM    5  C8  UNL     1     -32.097   7.664   2.142  1.00 20.00     0.039 C 
HETATM    6  O10 UNL     1     -33.650   5.909   2.808  1.00 20.00    -0.391 OA
ENDROOT
BRANCH   5   7
HETATM    7  C9  UNL     1     -31.517   8.421   0.953  1.00 20.00     0.128 C 
BRANCH   7   8
HETATM    8  C7  UNL     1     -32.593   9.163   0.178  1.00 20.00     0.015 A 
HETATM    9  C3  UNL     1     -33.088  10.499   0.659  1.00 20.00     0.007 A 
HETATM   10  C4  UNL     1     -32.250  10.411  -0.587  1.00 20.00     0.007 A 
ENDBRANCH   7   8
BRANCH   7  11
HETATM   11  O11 UNL     1     -30.864   7.498   0.088  1.00 20.00    -0.395 OA
HETATM   12  H27 UNL     1     -30.475   8.019  -0.632  1.00 20.00     0.210 HD
ENDBRANCH   7  11
ENDBRANCH   5   7
TORSDOF 3
