REMARK  0 active torsions:
REMARK  status: ('A' for Active; 'I' for Inactive)
ROOT
HETATM    1  C1  UNL     1     -32.589   9.352   0.865  1.00 20.00     0.065 C 
HETATM    2  C2  UNL     1     -35.291   6.237   3.617  1.00 20.00     0.032 C 
HETATM    3  C3  UNL     1     -34.937   7.399   4.525  1.00 20.00     0.037 C 
HETATM    4  C4  UNL     1     -33.471   9.006   3.162  1.00 20.00     0.056 C 
HETATM    5  C5  UNL     1     -33.949   5.560   3.397  1.00 20.00     0.273 C 
HETATM    6  C6  UNL     1     -32.755   7.119   1.944  1.00 20.00     0.292 C 
HETATM    7  C7  UNL     1     -32.447   8.599   2.113  1.00 20.00     0.123 C 
HETATM    8  C8  UNL     1     -33.529   7.794   4.092  1.00 20.00     0.224 C 
HETATM    9  N9  UNL     1     -32.701   9.948  -0.124  1.00 20.00    -0.197 NA
HETATM   10  N10 UNL     1     -32.973   6.654   3.322  1.00 20.00     0.094 N 
ENDROOT
TORSDOF 0
