REMARK  0 active torsions:
REMARK  status: ('A' for Active; 'I' for Inactive)
ROOT
HETATM    1  C1  UNL     1     -32.074   8.762   0.906  1.00 20.00     0.065 C 
HETATM    2  C2  UNL     1     -34.073   5.292   4.063  1.00 20.00     0.032 C 
HETATM    3  C3  UNL     1     -33.851   4.873   2.621  1.00 20.00     0.037 C 
HETATM    4  C4  UNL     1     -32.018   6.402   1.675  1.00 20.00     0.056 C 
HETATM    5  C5  UNL     1     -34.667   6.682   3.922  1.00 20.00     0.273 C 
HETATM    6  C6  UNL     1     -32.784   8.054   3.180  1.00 20.00     0.292 C 
HETATM    7  C7  UNL     1     -31.794   7.863   2.038  1.00 20.00     0.123 C 
HETATM    8  C8  UNL     1     -33.514   6.177   1.905  1.00 20.00     0.224 C 
HETATM    9  N9  UNL     1     -32.295   9.470   0.015  1.00 20.00    -0.197 NA
HETATM   10  N10 UNL     1     -33.973   7.284   2.778  1.00 20.00     0.094 N 
ENDROOT
TORSDOF 0
