REMARK  0 active torsions:
REMARK  status: ('A' for Active; 'I' for Inactive)
ROOT
HETATM    1  C1  UNL     1     -32.525   8.345   2.646  1.00 20.00     0.053 A 
HETATM    2  C2  UNL     1     -32.195   6.621   1.012  1.00 20.00     0.159 A 
HETATM    3  C3  UNL     1     -33.419   7.496   3.265  1.00 20.00    -0.030 A 
HETATM    4  C4  UNL     1     -31.898   7.900   1.484  1.00 20.00     0.134 A 
HETATM    5  C5  UNL     1     -33.646   6.238   2.718  1.00 20.00     0.040 A 
HETATM    6  C6  UNL     1     -34.199   7.692   4.521  1.00 20.00     0.041 C 
HETATM    7  C7  UNL     1     -34.605   5.454   3.567  1.00 20.00     0.060 C 
HETATM    8  C8  UNL     1     -35.251   6.579   4.390  1.00 20.00     0.011 C 
HETATM    9  N9  UNL     1     -33.059   5.763   1.607  1.00 20.00    -0.262 NA
HETATM   10  F10 UNL     1     -31.025   8.680   0.836  1.00 20.00    -0.205 F 
ENDROOT
TORSDOF 0
