REMARK  0 active torsions:
REMARK  status: ('A' for Active; 'I' for Inactive)
ROOT
HETATM    1  C1  UNL     1     -32.710   5.350   1.765  1.00 20.00     0.015 A 
HETATM    2  C2  UNL     1     -31.959   6.338   1.264  1.00 20.00     0.083 A 
HETATM    3  C3  UNL     1     -33.635   5.650   2.803  1.00 20.00    -0.028 A 
HETATM    4  C4  UNL     1     -33.735   6.897   3.256  1.00 20.00     0.063 A 
HETATM    5  C5  UNL     1     -32.080   7.729   1.777  1.00 20.00     0.287 A 
HETATM    6  C6  UNL     1     -34.559   4.726   3.508  1.00 20.00     0.041 C 
HETATM    7  C7  UNL     1     -34.734   7.051   4.340  1.00 20.00     0.066 C 
HETATM    8  C8  UNL     1     -35.471   5.704   4.270  1.00 20.00     0.011 C 
HETATM    9  O9  UNL     1     -31.385   8.624   1.306  1.00 20.00    -0.260 OA
HETATM   10  O10 UNL     1     -32.987   7.973   2.784  1.00 20.00    -0.279 OA
ENDROOT
TORSDOF 0
