REMARK  0 active torsions:
REMARK  status: ('A' for Active; 'I' for Inactive)
ROOT
HETATM    1  C1  UNL     1     -31.553   6.428   1.454  1.00 20.00    -0.023 C 
HETATM    2  C2  UNL     1     -32.288   7.541   1.568  1.00 20.00    -0.083 C 
HETATM    3  C3  UNL     1     -34.123   5.478   3.759  1.00 20.00     0.132 C 
HETATM    4  C4  UNL     1     -32.210   5.244   2.086  1.00 20.00     0.040 C 
HETATM    5  C5  UNL     1     -34.418   6.750   4.507  1.00 20.00     0.079 C 
HETATM    6  C6  UNL     1     -33.562   7.757   3.753  1.00 20.00     0.017 C 
HETATM    7  C7  UNL     1     -33.570   7.282   2.299  1.00 20.00     0.025 C 
HETATM    8  C8  UNL     1     -33.626   5.745   2.359  1.00 20.00     0.067 C 
HETATM    9  C9  UNL     1     -31.935   8.899   1.079  1.00 20.00     0.043 C 
HETATM   10  O10 UNL     1     -34.303   4.359   4.220  1.00 20.00    -0.298 OA
ENDROOT
TORSDOF 0
