REMARK  2 active torsions:
REMARK  status: ('A' for Active; 'I' for Inactive)
REMARK    1  A    between atoms: C4_4  and  O10_10 
REMARK    2  A    between atoms: C5_5  and  C8_8 
ROOT
HETATM    1  C1  UNL     1     -33.170   6.076   1.926  1.00 20.00     0.040 A 
HETATM    2  C2  UNL     1     -32.555   7.111   1.230  1.00 20.00     0.030 A 
HETATM    3  C3  UNL     1     -33.799   7.644   3.599  1.00 20.00     0.153 A 
HETATM    4  C4  UNL     1     -33.807   6.339   3.133  1.00 20.00     0.083 A 
HETATM    5  C5  UNL     1     -32.604   8.382   1.781  1.00 20.00     0.038 A 
HETATM    6  N9  UNL     1     -33.212   8.676   2.952  1.00 20.00    -0.262 NA
ENDROOT
BRANCH   5   7
HETATM    7  C8  UNL     1     -31.950   9.508   1.053  1.00 20.00     0.038 A 
HETATM    8  C6  UNL     1     -32.765  10.726   0.708  1.00 20.00     0.011 A 
HETATM    9  C7  UNL     1     -32.342   9.782  -0.375  1.00 20.00     0.011 A 
ENDBRANCH   5   7
BRANCH   4  10
HETATM   10  O10 UNL     1     -34.416   5.350   3.832  1.00 20.00    -0.359 OA
HETATM   11  H19 UNL     1     -34.329   4.500   3.367  1.00 20.00     0.217 HD
ENDBRANCH   4  10
TORSDOF 2
