REMARK  2 active torsions:
REMARK  status: ('A' for Active; 'I' for Inactive)
REMARK    1  A    between atoms: C7_7  and  C8_8 
REMARK    2  A    between atoms: C9_9  and  O10_10 
ROOT
HETATM    1  C1  UNL     1     -32.403   5.545   1.824  1.00 20.00     0.003 C 
HETATM    2  C2  UNL     1     -32.163   6.670   0.820  1.00 20.00     0.005 C 
HETATM    3  C5  UNL     1     -33.642   5.806   2.673  1.00 20.00     0.032 C 
HETATM    4  C6  UNL     1     -33.336   8.293   2.360  1.00 20.00     0.036 C 
HETATM    5  C8  UNL     1     -32.086   8.040   1.509  1.00 20.00    -0.008 C 
HETATM    6  C9  UNL     1     -33.573   7.165   3.365  1.00 20.00     0.118 C 
ENDROOT
BRANCH   5   7
HETATM    7  C7  UNL     1     -31.901   9.152   0.478  1.00 20.00    -0.010 A 
HETATM    8  C3  UNL     1     -32.978   9.437  -0.531  1.00 20.00     0.005 A 
HETATM    9  C4  UNL     1     -32.708  10.417   0.576  1.00 20.00     0.005 A 
ENDBRANCH   5   7
BRANCH   6  10
HETATM   10  O10 UNL     1     -34.799   7.387   4.053  1.00 20.00    -0.396 OA
HETATM   11  H26 UNL     1     -34.724   8.255   4.481  1.00 20.00     0.210 HD
ENDBRANCH   6  10
TORSDOF 2
