REMARK  2 active torsions:
REMARK  status: ('A' for Active; 'I' for Inactive)
REMARK    1  A    between atoms: C7_7  and  C8_8 
REMARK    2  A    between atoms: C9_9  and  O10_10 
ROOT
HETATM    1  C1  UNL     1     -33.671   4.604   3.052  1.00 20.00     0.003 C 
HETATM    2  C2  UNL     1     -32.688   5.697   2.640  1.00 20.00     0.005 C 
HETATM    3  C5  UNL     1     -34.194   4.822   4.471  1.00 20.00     0.032 C 
HETATM    4  C6  UNL     1     -33.815   7.311   4.226  1.00 20.00     0.036 C 
HETATM    5  C8  UNL     1     -33.297   7.097   2.795  1.00 20.00    -0.008 C 
HETATM    6  C9  UNL     1     -34.792   6.215   4.657  1.00 20.00     0.118 C 
ENDROOT
BRANCH   5   7
HETATM    7  C7  UNL     1     -32.276   8.172   2.426  1.00 20.00    -0.010 A 
HETATM    8  C3  UNL     1     -32.090   8.580   0.990  1.00 20.00     0.005 A 
HETATM    9  C4  UNL     1     -32.736   9.526   1.963  1.00 20.00     0.005 A 
ENDBRANCH   5   7
BRANCH   6  10
HETATM   10  O10 UNL     1     -35.990   6.306   3.888  1.00 20.00    -0.396 OA
HETATM   11  H26 UNL     1     -36.586   5.619   4.226  1.00 20.00     0.210 HD
ENDBRANCH   6  10
TORSDOF 2
