REMARK  1 active torsions:
REMARK  status: ('A' for Active; 'I' for Inactive)
REMARK    1  A    between atoms: C2_2  and  C9_9 
ROOT
HETATM    1  C1  UNL     1     -32.765   8.424   2.429  1.00 20.00     0.053 C 
HETATM    2  C2  UNL     1     -32.406   8.252   1.147  1.00 20.00    -0.072 C 
HETATM    3  C3  UNL     1     -33.314   7.294   3.219  1.00 20.00     0.149 C 
HETATM    4  C4  UNL     1     -32.468   6.917   0.451  1.00 20.00     0.035 C 
HETATM    5  C5  UNL     1     -33.547   5.973   2.521  1.00 20.00     0.083 C 
HETATM    6  C6  UNL     1     -32.513   5.747   1.431  1.00 20.00     0.012 C 
HETATM    7  O10 UNL     1     -33.626   7.466   4.396  1.00 20.00    -0.293 OA
ENDROOT
BRANCH   2   8
HETATM    8  C9  UNL     1     -31.915   9.401   0.315  1.00 20.00     0.014 A 
HETATM    9  C7  UNL     1     -32.616   9.681  -0.970  1.00 20.00     0.010 A 
HETATM   10  C8  UNL     1     -32.787  10.603   0.200  1.00 20.00     0.010 A 
ENDBRANCH   2   8
TORSDOF 1
