REMARK  0 active torsions:
REMARK  status: ('A' for Active; 'I' for Inactive)
ROOT
HETATM    1  C1  UNL     1     -33.437   7.827   0.729  1.00 20.00     0.005 C 
HETATM    2  C2  UNL     1     -31.470   6.548   1.582  1.00 20.00     0.005 C 
HETATM    3  C3  UNL     1     -34.269   6.533   0.697  1.00 20.00     0.008 C 
HETATM    4  C4  UNL     1     -32.296   5.249   1.552  1.00 20.00     0.008 C 
HETATM    5  C5  UNL     1     -33.105   7.555   3.202  1.00 20.00     0.045 C 
HETATM    6  C6  UNL     1     -34.279   5.525   4.377  1.00 20.00     0.207 A 
HETATM    7  C7  UNL     1     -32.383   7.761   1.851  1.00 20.00    -0.012 C 
HETATM    8  C8  UNL     1     -33.784   5.563   1.791  1.00 20.00     0.022 C 
HETATM    9  C9  UNL     1     -33.886   6.268   3.124  1.00 20.00     0.086 A 
HETATM   10  O10 UNL     1     -35.214   6.343   3.661  1.00 20.00    -0.375 OA
ENDROOT
TORSDOF 0
