REMARK  0 active torsions:
REMARK  status: ('A' for Active; 'I' for Inactive)
ROOT
HETATM    1  C1  UNL     1     -32.750   6.361   1.363  1.00 20.00     0.132 C 
HETATM    2  C2  UNL     1     -31.276   6.606   1.667  1.00 20.00     0.084 C 
HETATM    3  C3  UNL     1     -33.606   7.675   3.207  1.00 20.00     0.013 C 
HETATM    4  C4  UNL     1     -32.132   7.957   3.622  1.00 20.00     0.006 C 
HETATM    5  C5  UNL     1     -32.686  10.122   1.263  1.00 20.00     0.011 A 
HETATM    6  C6  UNL     1     -32.206   9.304   0.084  1.00 20.00     0.011 A 
HETATM    7  C7  UNL     1     -33.531   7.639   1.668  1.00 20.00     0.064 C 
HETATM    8  C8  UNL     1     -31.378   8.037   2.266  1.00 20.00     0.002 C 
HETATM    9  C9  UNL     1     -32.452   8.648   1.411  1.00 20.00    -0.026 A 
HETATM   10  O10 UNL     1     -33.230   5.310   0.973  1.00 20.00    -0.298 OA
ENDROOT
TORSDOF 0
