REMARK  0 active torsions:
REMARK  status: ('A' for Active; 'I' for Inactive)
ROOT
HETATM    1  C1  UNL     1     -34.070   5.501   3.267  1.00 20.00     0.136 C 
HETATM    2  C2  UNL     1     -33.380   5.173   0.802  1.00 20.00     0.018 A 
HETATM    3  C3  UNL     1     -34.128   7.930   4.439  1.00 20.00     0.018 A 
HETATM    4  C4  UNL     1     -32.716   8.376   1.075  1.00 20.00     0.011 A 
HETATM    5  C5  UNL     1     -33.100   4.961   2.266  1.00 20.00     0.060 A 
HETATM    6  C6  UNL     1     -34.233   6.957   3.317  1.00 20.00     0.060 A 
HETATM    7  C7  UNL     1     -32.121   5.749   1.399  1.00 20.00     0.002 A 
HETATM    8  C8  UNL     1     -32.898   7.623   3.662  1.00 20.00     0.002 A 
HETATM    9  C9  UNL     1     -31.766   7.252   1.383  1.00 20.00    -0.005 A 
HETATM   10  C10 UNL     1     -32.188   8.234   2.477  1.00 20.00    -0.005 A 
HETATM   11  O11 UNL     1     -34.724   4.758   3.986  1.00 20.00    -0.297 OA
ENDROOT
TORSDOF 0
