REMARK  0 active torsions:
REMARK  status: ('A' for Active; 'I' for Inactive)
ROOT
HETATM    1  C1  UNL     1     -33.480   3.367   4.377  1.00 20.00     0.064 C 
HETATM    2  C2  UNL     1     -34.353   5.670   4.544  1.00 20.00     0.045 C 
HETATM    3  C3  UNL     1     -32.676   5.077   2.783  1.00 20.00     0.056 C 
HETATM    4  C4  UNL     1     -34.630   6.951   3.769  1.00 20.00     0.170 C 
HETATM    5  C5  UNL     1     -33.862   4.564   3.608  1.00 20.00     0.097 C 
HETATM    6  C6  UNL     1     -32.979   6.418   2.086  1.00 20.00     0.055 C 
HETATM    7  C7  UNL     1     -31.670   7.013   1.548  1.00 20.00     0.045 C 
HETATM    8  C8  UNL     1     -33.951   6.253   0.908  1.00 20.00     0.045 C 
HETATM    9  N9  UNL     1     -33.179   2.424   4.982  1.00 20.00    -0.197 NA
HETATM   10  O10 UNL     1     -33.484   7.372   3.032  1.00 20.00    -0.381 OA
ENDROOT
TORSDOF 0
