REMARK  1 active torsions:
REMARK  status: ('A' for Active; 'I' for Inactive)
REMARK    1  A    between atoms: C5_5  and  C9_9 
ROOT
HETATM    1  C1  UNL     1     -34.153   6.274   3.481  1.00 20.00     0.133 C 
HETATM    2  C2  UNL     1     -33.646   5.019   2.808  1.00 20.00     0.093 C 
HETATM    3  C3  UNL     1     -33.100   7.331   3.790  1.00 20.00     0.065 C 
HETATM    4  C4  UNL     1     -33.061   5.292   1.428  1.00 20.00     0.050 C 
HETATM    5  C5  UNL     1     -32.482   7.889   2.498  1.00 20.00     0.058 C 
HETATM    6  C6  UNL     1     -33.666   8.426   4.695  1.00 20.00     0.019 C 
HETATM    7  C7  UNL     1     -34.131   5.591   0.381  1.00 20.00     0.022 C 
HETATM    8  O10 UNL     1     -35.339   6.400   3.781  1.00 20.00    -0.298 OA
HETATM    9  S11 UNL     1     -31.746   6.568   1.450  1.00 20.00    -0.159 SA
ENDROOT
BRANCH   5  10
HETATM   10  C9  UNL     1     -33.407   8.790   1.680  1.00 20.00     0.011 C 
HETATM   11  C8  UNL     1     -32.720   9.335   0.471  1.00 20.00     0.006 C 
ENDBRANCH   5  10
TORSDOF 1
