REMARK  2 active torsions:
REMARK  status: ('A' for Active; 'I' for Inactive)
REMARK    1  A    between atoms: C8_8  and  C9_9 
REMARK    2  A    between atoms: C9_9  and  N11_11 
ROOT
HETATM    1  C1  UNL     1     -33.964   7.111   3.824  1.00 20.00     0.096 C 
HETATM    2  C9  UNL     1     -33.798   6.174   2.705  1.00 20.00     0.332 C 
HETATM    3  N10 UNL     1     -34.098   7.850   4.709  1.00 20.00    -0.195 NA
ENDROOT
BRANCH   2   4
HETATM    4  C8  UNL     1     -32.748   6.676   1.723  1.00 20.00     0.033 A 
HETATM    5  C4  UNL     1     -32.877   8.042   1.108  1.00 20.00     0.008 A 
HETATM    6  C5  UNL     1     -31.801   7.774   2.123  1.00 20.00     0.008 A 
ENDBRANCH   2   4
BRANCH   2   7
HETATM    7  N11 UNL     1     -33.435   4.846   3.213  1.00 20.00     0.106 N 
HETATM    8  C6  UNL     1     -32.179   4.902   3.964  1.00 20.00     0.274 C 
HETATM    9  C2  UNL     1     -32.208   3.613   4.773  1.00 20.00     0.032 C 
HETATM   10  C3  UNL     1     -33.686   3.261   4.908  1.00 20.00     0.032 C 
HETATM   11  C7  UNL     1     -34.429   4.368   4.175  1.00 20.00     0.274 C 
ENDBRANCH   2   7
TORSDOF 2
