REMARK  0 active torsions:
REMARK  status: ('A' for Active; 'I' for Inactive)
ROOT
HETATM    1  C1  UNL     1     -32.155  11.154   0.041  1.00 20.00     0.000 C 
HETATM    2  C2  UNL     1     -30.896  10.638   0.734  1.00 20.00     0.003 C 
HETATM    3  C3  UNL     1     -33.402  10.430   0.545  1.00 20.00     0.003 C 
HETATM    4  C4  UNL     1     -30.762   9.123   0.586  1.00 20.00     0.044 C 
HETATM    5  C5  UNL     1     -33.269   8.911   0.404  1.00 20.00     0.044 C 
HETATM    6  C6  UNL     1     -33.713   6.385   2.746  1.00 20.00     0.032 C 
HETATM    7  C7  UNL     1     -32.991   6.146   1.448  1.00 20.00     0.112 C 
HETATM    8  C8  UNL     1     -33.246   7.753   3.163  1.00 20.00     0.112 C 
HETATM    9  C9  UNL     1     -32.012   8.417   1.092  1.00 20.00     0.095 A 
HETATM   10  N10 UNL     1     -31.814   7.007   1.448  1.00 20.00    -0.223 NA
HETATM   11  N11 UNL     1     -31.972   7.995   2.496  1.00 20.00    -0.223 NA
ENDROOT
TORSDOF 0
