REMARK  0 active torsions:
REMARK  status: ('A' for Active; 'I' for Inactive)
ROOT
HETATM    1  C1  UNL     1     -31.825   7.230   1.585  1.00 20.00     0.032 C 
HETATM    2  C2  UNL     1     -34.857   5.685   4.258  1.00 20.00     0.032 C 
HETATM    3  C3  UNL     1     -32.647   7.990   2.606  1.00 20.00     0.109 C 
HETATM    4  C4  UNL     1     -32.073   5.790   1.987  1.00 20.00     0.109 C 
HETATM    5  C5  UNL     1     -34.367   7.113   4.125  1.00 20.00     0.109 C 
HETATM    6  C6  UNL     1     -33.797   4.912   3.501  1.00 20.00     0.109 C 
HETATM    7  N7  UNL     1     -33.833   7.152   2.766  1.00 20.00    -0.250 NA
HETATM    8  N8  UNL     1     -33.479   5.796   2.382  1.00 20.00    -0.250 NA
ENDROOT
TORSDOF 0
