REMARK  3 active torsions:
REMARK  status: ('A' for Active; 'I' for Inactive)
REMARK    1  A    between atoms: C6_6  and  C9_9 
REMARK    2  A    between atoms: C7_7  and  C9_9 
REMARK    3  A    between atoms: C8_8  and  O10_10 
ROOT
HETATM    1  C1  UNL     1     -33.743   6.049   2.793  1.00 20.00     0.003 C 
HETATM    2  C2  UNL     1     -32.305   6.208   2.302  1.00 20.00     0.007 C 
HETATM    3  C5  UNL     1     -34.174   7.416   3.333  1.00 20.00     0.032 C 
HETATM    4  C7  UNL     1     -32.094   7.714   2.131  1.00 20.00     0.015 C 
HETATM    5  C8  UNL     1     -32.930   8.298   3.272  1.00 20.00     0.122 C 
ENDROOT
BRANCH   4   6
HETATM    6  C9  UNL     1     -32.563   8.201   0.762  1.00 20.00     0.011 C 
BRANCH   6   7
HETATM    7  C6  UNL     1     -31.905   9.510   0.395  1.00 20.00    -0.014 A 
HETATM    8  C3  UNL     1     -32.510  10.393  -0.660  1.00 20.00     0.005 A 
HETATM    9  C4  UNL     1     -32.546  10.814   0.782  1.00 20.00     0.005 A 
ENDBRANCH   6   7
ENDBRANCH   4   6
BRANCH   5  10
HETATM   10  O10 UNL     1     -32.225   8.169   4.504  1.00 20.00    -0.395 OA
HETATM   11  H26 UNL     1     -32.826   8.460   5.211  1.00 20.00     0.210 HD
ENDBRANCH   5  10
TORSDOF 3
