REMARK  2 active torsions:
REMARK  status: ('A' for Active; 'I' for Inactive)
REMARK    1  A    between atoms: C6_6  and  N9_9 
REMARK    2  A    between atoms: C7_7  and  N9_9 
ROOT
HETATM    1  C1  UNL     1     -32.254   6.060   1.569  1.00 20.00     0.100 C 
HETATM    2  C4  UNL     1     -34.060   6.838   3.052  1.00 20.00     0.065 C 
HETATM    3  C5  UNL     1     -31.817   7.970   3.055  1.00 20.00     0.065 C 
HETATM    4  C7  UNL     1     -32.860   7.249   2.196  1.00 20.00     0.237 C 
HETATM    5  N8  UNL     1     -31.778   5.123   1.076  1.00 20.00    -0.195 NA
ENDROOT
BRANCH   4   6
HETATM    6  N9  UNL     1     -33.323   8.157   1.163  1.00 20.00     0.110 N 
HETATM    7  H23 UNL     1     -34.017   8.795   1.556  1.00 20.00     0.318 HD
BRANCH   6   8
HETATM    8  C6  UNL     1     -32.219   8.937   0.614  1.00 20.00     0.214 C 
HETATM    9  C2  UNL     1     -32.778  10.168  -0.085  1.00 20.00     0.042 C 
HETATM   10  C3  UNL     1     -31.423   8.060  -0.341  1.00 20.00     0.042 C 
ENDBRANCH   6   8
ENDBRANCH   4   6
TORSDOF 2
