REMARK  0 active torsions:
REMARK  status: ('A' for Active; 'I' for Inactive)
ROOT
HETATM    1  C1  UNL     1     -32.772   9.421   1.129  1.00 20.00    -0.029 A 
HETATM    2  C2  UNL     1     -32.996   9.290   2.441  1.00 20.00    -0.018 A 
HETATM    3  C3  UNL     1     -33.553   6.904   2.992  1.00 20.00     0.135 A 
HETATM    4  C4  UNL     1     -32.069   8.248   0.516  1.00 20.00     0.033 A 
HETATM    5  C5  UNL     1     -32.924   6.110   1.836  1.00 20.00     0.084 A 
HETATM    6  C6  UNL     1     -32.477   8.001   2.920  1.00 20.00     0.082 A 
HETATM    7  C7  UNL     1     -31.890   7.262   1.680  1.00 20.00     0.011 A 
HETATM    8  O8  UNL     1     -34.531   6.731   3.688  1.00 20.00    -0.297 OA
ENDROOT
TORSDOF 0
