REMARK  0 active torsions:
REMARK  status: ('A' for Active; 'I' for Inactive)
ROOT
HETATM    1  C1  UNL     1     -35.049   6.443   4.462  1.00 20.00     0.086 C 
HETATM    2  C2  UNL     1     -34.687   7.792   3.908  1.00 20.00     0.055 C 
HETATM    3  C3  UNL     1     -31.541   7.520   1.644  1.00 20.00     0.030 C 
HETATM    4  C4  UNL     1     -32.802   8.224   2.165  1.00 20.00     0.010 C 
HETATM    5  C5  UNL     1     -31.773   6.026   1.363  1.00 20.00     0.272 C 
HETATM    6  C6  UNL     1     -33.359   7.398   3.309  1.00 20.00     0.045 C 
HETATM    7  C7  UNL     1     -33.662   5.979   2.836  1.00 20.00     0.345 C 
HETATM    8  N8  UNL     1     -34.466   5.404   3.940  1.00 20.00    -0.270 NA
HETATM    9  N9  UNL     1     -32.406   5.317   2.489  1.00 20.00     0.108 N 
HETATM   10  H21 UNL     1     -32.597   4.355   2.212  1.00 20.00     0.318 HD
ENDROOT
TORSDOF 0
