REMARK  2 active torsions:
REMARK  status: ('A' for Active; 'I' for Inactive)
REMARK    1  A    between atoms: C2_2  and  C3_3 
REMARK    2  A    between atoms: C2_2  and  N4_4 
ROOT
HETATM    1  C1  UNL     1     -32.535   9.363   0.810  1.00 20.00     0.157 C 
HETATM    2  N4  UNL     1     -32.320   8.918   1.877  1.00 20.00    -0.267 NA
HETATM    3  S8  UNL     1     -32.819   9.990  -0.626  1.00 20.00    -0.055 SA
ENDROOT
BRANCH   2   4
HETATM    4  C2  UNL     1     -32.610   7.492   2.021  1.00 20.00     0.267 C 
BRANCH   4   5
HETATM    5  C3  UNL     1     -33.666   7.304   3.081  1.00 20.00     0.405 C 
HETATM    6  F5  UNL     1     -33.235   7.785   4.268  1.00 20.00    -0.169 F 
HETATM    7  F6  UNL     1     -33.965   5.999   3.252  1.00 20.00    -0.169 F 
HETATM    8  F7  UNL     1     -34.804   7.958   2.763  1.00 20.00    -0.169 F 
ENDBRANCH   4   5
ENDBRANCH   2   4
TORSDOF 2
