REMARK  0 active torsions:
REMARK  status: ('A' for Active; 'I' for Inactive)
ROOT
HETATM    1  C1  UNL     1     -33.377   7.832   3.369  1.00 20.00     0.061 A 
HETATM    2  C2  UNL     1     -33.715   5.143   2.553  1.00 20.00     0.053 A 
HETATM    3  C3  UNL     1     -32.755   7.321   2.245  1.00 20.00     0.019 A 
HETATM    4  C4  UNL     1     -32.907   6.004   1.828  1.00 20.00    -0.041 A 
HETATM    5  C5  UNL     1     -34.190   6.966   4.100  1.00 20.00     0.155 A 
HETATM    6  C6  UNL     1     -34.358   5.631   3.695  1.00 20.00     0.155 A 
HETATM    7  C7  UNL     1     -31.865   7.993   1.312  1.00 20.00     0.160 A 
HETATM    8  C8  UNL     1     -32.132   5.695   0.587  1.00 20.00     0.047 A 
HETATM    9  C9  UNL     1     -31.433   7.021   0.240  1.00 20.00     0.088 A 
HETATM   10  O10 UNL     1     -31.532   9.160   1.403  1.00 20.00    -0.292 OA
HETATM   11  F11 UNL     1     -34.817   7.410   5.197  1.00 20.00    -0.203 F 
HETATM   12  F12 UNL     1     -35.145   4.817   4.412  1.00 20.00    -0.203 F 
ENDROOT
TORSDOF 0
