REMARK  0 active torsions:
REMARK  status: ('A' for Active; 'I' for Inactive)
ROOT
HETATM    1  C1  UNL     1     -32.433   6.431   0.719  1.00 20.00     0.012 A 
HETATM    2  C2  UNL     1     -32.193   7.543  -0.089  1.00 20.00     0.024 A 
HETATM    3  C3  UNL     1     -32.430   8.985   1.828  1.00 20.00     0.031 A 
HETATM    4  C4  UNL     1     -32.678   6.567   2.095  1.00 20.00    -0.021 A 
HETATM    5  C5  UNL     1     -32.668   7.872   2.648  1.00 20.00    -0.048 A 
HETATM    6  C6  UNL     1     -32.194   8.819   0.465  1.00 20.00     0.034 A 
HETATM    7  C7  UNL     1     -32.912   8.065   4.128  1.00 20.00     0.039 C 
HETATM    8  C8  UNL     1     -34.357   7.804   4.578  1.00 20.00     0.007 C 
HETATM    9  C9  UNL     1     -35.028   6.556   3.996  1.00 20.00     0.035 C 
HETATM   10  C10 UNL     1     -32.953   5.352   2.950  1.00 20.00     0.184 A 
HETATM   11  C11 UNL     1     -34.105   5.380   3.936  1.00 20.00     0.156 A 
HETATM   12  O12 UNL     1     -34.177   4.630   2.721  1.00 20.00    -0.370 OA
HETATM   13 CL13 UNL     1     -31.900  10.191  -0.532  1.00 20.00    -0.084 Cl
ENDROOT
TORSDOF 0
