REMARK  0 active torsions:
REMARK  status: ('A' for Active; 'I' for Inactive)
ROOT
HETATM    1  C1  UNL     1     -32.410   5.760   1.146  1.00 20.00     0.009 A 
HETATM    2  C2  UNL     1     -31.769   6.935   0.752  1.00 20.00     0.024 A 
HETATM    3  C3  UNL     1     -32.792   8.163   2.589  1.00 20.00     0.034 A 
HETATM    4  C4  UNL     1     -33.234   5.805   2.259  1.00 20.00    -0.047 A 
HETATM    5  C5  UNL     1     -33.432   6.997   2.987  1.00 20.00    -0.019 A 
HETATM    6  C6  UNL     1     -31.958   8.127   1.468  1.00 20.00     0.034 A 
HETATM    7  C7  UNL     1     -34.025   4.661   2.854  1.00 20.00     0.074 A 
HETATM    8  C8  UNL     1     -34.364   6.766   4.128  1.00 20.00     0.185 A 
HETATM    9  C9  UNL     1     -34.681   5.280   4.072  1.00 20.00     0.160 A 
HETATM   10  O10 UNL     1     -35.680   6.273   3.828  1.00 20.00    -0.370 OA
HETATM   11 CL11 UNL     1     -31.153   9.563   0.958  1.00 20.00    -0.084 Cl
ENDROOT
TORSDOF 0
