REMARK  1 active torsions:
REMARK  status: ('A' for Active; 'I' for Inactive)
REMARK    1  A    between atoms: C3_3  and  C8_8 
ROOT
HETATM    1  C1  UNL     1     -31.849   6.573   0.836  1.00 20.00     0.058 A 
HETATM    2  C2  UNL     1     -32.954   7.738   2.480  1.00 20.00    -0.037 A 
HETATM    3  C3  UNL     1     -32.029   7.818   1.419  1.00 20.00    -0.031 A 
HETATM    4  C4  UNL     1     -33.431   6.469   2.658  1.00 20.00    -0.011 A 
HETATM    5  C5  UNL     1     -33.552   8.679   3.457  1.00 20.00     0.040 C 
HETATM    6  C6  UNL     1     -34.409   6.342   3.763  1.00 20.00     0.047 C 
HETATM    7  C7  UNL     1     -34.210   7.709   4.489  1.00 20.00     0.010 C 
HETATM    8  S9  UNL     1     -32.808   5.344   1.589  1.00 20.00    -0.105 SA
ENDROOT
BRANCH   3   9
HETATM    9  C8  UNL     1     -31.342   9.054   0.984  1.00 20.00     0.154 C 
HETATM   10 CL10 UNL     1     -32.044   9.676  -0.532  1.00 20.00    -0.126 Cl
ENDBRANCH   3   9
TORSDOF 1
