REMARK  0 active torsions:
REMARK  status: ('A' for Active; 'I' for Inactive)
ROOT
HETATM    1  C1  UNL     1     -32.953   6.087   1.308  1.00 20.00     0.012 A 
HETATM    2  C2  UNL     1     -33.836   5.479   2.200  1.00 20.00     0.024 A 
HETATM    3  C3  UNL     1     -33.813   7.458   3.592  1.00 20.00     0.031 A 
HETATM    4  C4  UNL     1     -32.490   7.387   1.542  1.00 20.00    -0.021 A 
HETATM    5  C5  UNL     1     -32.928   8.085   2.706  1.00 20.00    -0.048 A 
HETATM    6  C6  UNL     1     -34.266   6.163   3.336  1.00 20.00     0.034 A 
HETATM    7  C7  UNL     1     -32.396   9.486   3.019  1.00 20.00     0.039 C 
HETATM    8  C8  UNL     1     -32.718  10.624   2.014  1.00 20.00     0.007 C 
HETATM    9  C9  UNL     1     -32.021  10.535   0.631  1.00 20.00     0.035 C 
HETATM   10  C10 UNL     1     -31.569   8.110   0.616  1.00 20.00     0.184 A 
HETATM   11  C11 UNL     1     -32.413   9.252   0.013  1.00 20.00     0.156 A 
HETATM   12  O12 UNL     1     -31.641   8.385  -0.782  1.00 20.00    -0.370 OA
HETATM   13 CL13 UNL     1     -35.356   5.404   4.432  1.00 20.00    -0.084 Cl
ENDROOT
TORSDOF 0
