REMARK  0 active torsions:
REMARK  status: ('A' for Active; 'I' for Inactive)
ROOT
HETATM    1  C1  UNL     1     -32.034   7.479   2.008  1.00 20.00     0.009 A 
HETATM    2  C2  UNL     1     -31.431   6.505   1.212  1.00 20.00     0.019 A 
HETATM    3  C3  UNL     1     -33.015   4.826   1.987  1.00 20.00     0.029 A 
HETATM    4  C4  UNL     1     -33.121   7.109   2.785  1.00 20.00    -0.047 A 
HETATM    5  C5  UNL     1     -33.619   5.790   2.782  1.00 20.00    -0.019 A 
HETATM    6  C6  UNL     1     -31.917   5.188   1.202  1.00 20.00     0.011 A 
HETATM    7  C7  UNL     1     -33.924   7.998   3.709  1.00 20.00     0.074 A 
HETATM    8  C8  UNL     1     -34.791   5.670   3.696  1.00 20.00     0.185 A 
HETATM    9  C9  UNL     1     -34.935   7.048   4.321  1.00 20.00     0.160 A 
HETATM   10  O10 UNL     1     -35.927   6.513   3.443  1.00 20.00    -0.370 OA
HETATM   11 BR11 UNL     1     -31.078   3.891   0.110  1.00 20.00    -0.051 Br
ENDROOT
TORSDOF 0
