REMARK  1 active torsions:
REMARK  status: ('A' for Active; 'I' for Inactive)
REMARK    1  A    between atoms: C1_1  and  C8_8 
ROOT
HETATM    1  C1  UNL     1     -33.413   6.483   2.612  1.00 20.00     0.014 C 
HETATM    2  C2  UNL     1     -33.505   7.619   3.582  1.00 20.00     0.057 C 
HETATM    3  C3  UNL     1     -34.904   7.382   4.095  1.00 20.00     0.027 C 
HETATM    4  C4  UNL     1     -35.068   5.881   3.942  1.00 20.00     0.149 C 
HETATM    5  N9  UNL     1     -34.254   5.507   2.767  1.00 20.00    -0.298 NA
ENDROOT
BRANCH   1   6
HETATM    6  C8  UNL     1     -32.366   6.475   1.547  1.00 20.00    -0.011 C 
HETATM    7  C5  UNL     1     -31.515   7.747   1.670  1.00 20.00     0.021 C 
HETATM    8  C6  UNL     1     -33.036   6.434   0.167  1.00 20.00     0.021 C 
HETATM    9  C7  UNL     1     -31.471   5.239   1.714  1.00 20.00     0.021 C 
ENDBRANCH   1   6
TORSDOF 1
