REMARK  3 active torsions:
REMARK  status: ('A' for Active; 'I' for Inactive)
REMARK    1  A    between atoms: C5_5  and  C8_8 
REMARK    2  A    between atoms: C7_7  and  N9_9 
REMARK    3  A    between atoms: C8_8  and  N9_9 
ROOT
HETATM    1  C1  UNL     1     -33.079  10.161   0.214  1.00 20.00     0.013 C 
HETATM    2  C2  UNL     1     -32.349   9.279   0.574  1.00 20.00    -0.087 C 
HETATM    3  C7  UNL     1     -31.455   8.203   1.009  1.00 20.00     0.362 C 
ENDROOT
BRANCH   3   4
HETATM    4  N9  UNL     1     -31.874   7.677   2.290  1.00 20.00     0.098 N 
HETATM    5  H22 UNL     1     -31.110   7.189   2.738  1.00 20.00     0.317 HD
BRANCH   4   6
HETATM    6  C8  UNL     1     -32.981   6.708   2.102  1.00 20.00     0.221 C 
HETATM    7  C6  UNL     1     -32.402   5.384   1.625  1.00 20.00     0.043 C 
BRANCH   6   8
HETATM    8  C5  UNL     1     -33.736   6.554   3.414  1.00 20.00     0.018 A 
HETATM    9  C3  UNL     1     -34.721   7.604   3.850  1.00 20.00     0.007 A 
HETATM   10  C4  UNL     1     -35.210   6.253   3.408  1.00 20.00     0.007 A 
ENDBRANCH   6   8
ENDBRANCH   4   6
ENDBRANCH   3   4
TORSDOF 3
