REMARK  0 active torsions:
REMARK  status: ('A' for Active; 'I' for Inactive)
ROOT
HETATM    1  C1  UNL     1     -33.525   8.312   3.534  1.00 20.00     0.010 A 
HETATM    2  C2  UNL     1     -34.231   7.286   4.171  1.00 20.00     0.019 A 
HETATM    3  C3  UNL     1     -33.430   5.662   2.550  1.00 20.00     0.034 A 
HETATM    4  C4  UNL     1     -32.742   6.698   1.943  1.00 20.00     0.018 A 
HETATM    5  C5  UNL     1     -32.778   8.008   2.405  1.00 20.00    -0.040 A 
HETATM    6  C6  UNL     1     -34.184   5.970   3.681  1.00 20.00     0.011 A 
HETATM    7  C7  UNL     1     -31.885   6.648   0.770  1.00 20.00     0.160 A 
HETATM    8  C8  UNL     1     -31.320   8.021   0.499  1.00 20.00     0.093 A 
HETATM    9  C9  UNL     1     -31.950   8.943   1.570  1.00 20.00     0.023 A 
HETATM   10  C10 UNL     1     -32.782  10.057   0.943  1.00 20.00     0.015 C 
HETATM   11  O11 UNL     1     -31.662   5.639   0.127  1.00 20.00    -0.292 OA
HETATM   12 BR12 UNL     1     -35.150   4.607   4.567  1.00 20.00    -0.051 Br
ENDROOT
TORSDOF 0
