REMARK  0 active torsions:
REMARK  status: ('A' for Active; 'I' for Inactive)
ROOT
HETATM    1  C1  UNL     1     -32.633   8.376   2.489  1.00 20.00     0.033 A 
HETATM    2  C2  UNL     1     -31.899   6.786   0.802  1.00 20.00     0.033 A 
HETATM    3  C3  UNL     1     -33.414   7.372   3.034  1.00 20.00    -0.028 A 
HETATM    4  C4  UNL     1     -32.686   5.780   1.370  1.00 20.00    -0.033 A 
HETATM    5  C5  UNL     1     -33.457   6.092   2.476  1.00 20.00     0.040 A 
HETATM    6  C6  UNL     1     -31.876   8.076   1.355  1.00 20.00     0.035 A 
HETATM    7  C7  UNL     1     -34.264   7.405   4.261  1.00 20.00     0.060 C 
HETATM    8  C8  UNL     1     -35.005   6.054   4.157  1.00 20.00     0.124 C 
HETATM    9  C9  UNL     1     -32.683   4.411   0.782  1.00 20.00     0.050 C 
HETATM   10  N10 UNL     1     -34.258   5.226   3.218  1.00 20.00    -0.389 N 
HETATM   11 CL11 UNL     1     -30.891   9.294   0.639  1.00 20.00    -0.084 Cl
HETATM   12  H21 UNL     1     -34.622   4.367   2.831  1.00 20.00     0.159 HD
ENDROOT
TORSDOF 0
