REMARK  0 active torsions:
REMARK  status: ('A' for Active; 'I' for Inactive)
ROOT
HETATM    1  C1  UNL     1     -32.485   5.454   1.108  1.00 20.00     0.010 A 
HETATM    2  C2  UNL     1     -31.735   6.497   0.554  1.00 20.00     0.019 A 
HETATM    3  C3  UNL     1     -32.583   8.055   2.215  1.00 20.00     0.034 A 
HETATM    4  C4  UNL     1     -33.314   7.004   2.739  1.00 20.00     0.018 A 
HETATM    5  C5  UNL     1     -33.278   5.717   2.215  1.00 20.00    -0.040 A 
HETATM    6  C6  UNL     1     -31.783   7.788   1.105  1.00 20.00     0.011 A 
HETATM    7  C7  UNL     1     -34.223   7.013   3.873  1.00 20.00     0.160 A 
HETATM    8  C8  UNL     1     -34.820   5.638   4.051  1.00 20.00     0.093 A 
HETATM    9  C9  UNL     1     -34.158   4.758   2.966  1.00 20.00     0.023 A 
HETATM   10  C10 UNL     1     -33.374   3.600   3.574  1.00 20.00     0.015 C 
HETATM   11  O11 UNL     1     -34.460   7.995   4.554  1.00 20.00    -0.292 OA
HETATM   12 BR12 UNL     1     -30.757   9.175   0.331  1.00 20.00    -0.051 Br
ENDROOT
TORSDOF 0
