REMARK  2 active torsions:
REMARK  status: ('A' for Active; 'I' for Inactive)
REMARK    1  A    between atoms: C2_2  and  C8_8 
REMARK    2  A    between atoms: C8_8  and  N9_9 
ROOT
HETATM    1  C3  UNL     1     -34.745   6.130   3.740  1.00 20.00     0.003 C 
HETATM    2  C4  UNL     1     -34.337   5.538   2.396  1.00 20.00     0.030 C 
HETATM    3  C5  UNL     1     -34.407   7.616   3.806  1.00 20.00     0.030 C 
HETATM    4  C6  UNL     1     -32.878   5.864   2.065  1.00 20.00     0.273 C 
HETATM    5  C7  UNL     1     -32.946   7.870   3.427  1.00 20.00     0.273 C 
HETATM    6  N9  UNL     1     -32.551   7.294   2.135  1.00 20.00     0.093 N 
ENDROOT
BRANCH   6   7
HETATM    7  C8  UNL     1     -33.097   8.042   1.005  1.00 20.00     0.317 C 
BRANCH   7   8
HETATM    8  C2  UNL     1     -32.402   9.358   0.791  1.00 20.00     0.007 C 
HETATM    9  C1  UNL     1     -33.044  10.535   0.794  1.00 20.00     0.029 C 
HETATM   10 BR10 UNL     1     -30.542   9.267   0.589  1.00 20.00    -0.055 Br
ENDBRANCH   7   8
ENDBRANCH   6   7
TORSDOF 2
