REMARK  1 active torsions:
REMARK  status: ('A' for Active; 'I' for Inactive)
REMARK    1  A    between atoms: C1_1  and  C6_6 
ROOT
HETATM    1  C2  UNL     1     -32.252   8.198   2.040  1.00 20.00     0.005 C 
HETATM    2  C3  UNL     1     -31.876   6.758   1.656  1.00 20.00     0.006 C 
HETATM    3  C4  UNL     1     -33.641   7.356   3.951  1.00 20.00     0.018 C 
HETATM    4  C5  UNL     1     -34.243   6.946   1.685  1.00 20.00     0.010 C 
HETATM    5  C6  UNL     1     -33.209   5.923   3.595  1.00 20.00     0.076 C 
HETATM    6  C7  UNL     1     -33.686   8.052   2.578  1.00 20.00    -0.013 C 
HETATM    7  C8  UNL     1     -33.130   5.960   2.055  1.00 20.00    -0.002 C 
ENDROOT
BRANCH   5   8
HETATM    8  C1  UNL     1     -34.204   4.912   4.077  1.00 20.00     0.223 C 
HETATM    9  O9  UNL     1     -35.393   5.188   4.208  1.00 20.00    -0.279 OA
HETATM   10 CL10 UNL     1     -33.467   3.374   4.405  1.00 20.00    -0.043 Cl
ENDBRANCH   5   8
TORSDOF 1
