REMARK  3 active torsions:
REMARK  status: ('A' for Active; 'I' for Inactive)
REMARK    1  A    between atoms: C5_5  and  N9_9 
REMARK    2  A    between atoms: C6_6  and  C7_7 
REMARK    3  A    between atoms: C7_7  and  N9_9 
ROOT
HETATM    1  C1  UNL     1     -33.808   3.648   4.660  1.00 20.00     0.089 C 
HETATM    2  C5  UNL     1     -34.821   4.682   4.460  1.00 20.00     0.393 C 
HETATM    3  N8  UNL     1     -33.004   2.826   4.821  1.00 20.00    -0.195 NA
ENDROOT
BRANCH   2   4
HETATM    4  N9  UNL     1     -34.593   5.400   3.211  1.00 20.00     0.100 N 
HETATM    5  H23 UNL     1     -35.461   5.862   2.932  1.00 20.00     0.317 HD
BRANCH   4   6
HETATM    6  C7  UNL     1     -33.542   6.386   3.356  1.00 20.00     0.221 C 
HETATM    7  C4  UNL     1     -34.120   7.635   4.019  1.00 20.00     0.043 C 
BRANCH   6   8
HETATM    8  C6  UNL     1     -32.866   6.680   1.997  1.00 20.00     0.010 C 
HETATM    9  C2  UNL     1     -31.712   7.684   2.080  1.00 20.00     0.011 C 
HETATM   10  C3  UNL     1     -32.381   5.388   1.328  1.00 20.00     0.011 C 
ENDBRANCH   6   8
ENDBRANCH   4   6
ENDBRANCH   2   4
TORSDOF 3
