REMARK  1 active torsions:
REMARK  status: ('A' for Active; 'I' for Inactive)
REMARK    1  A    between atoms: C1_1  and  C6_6 
ROOT
HETATM    1  C2  UNL     1     -33.662   7.616   3.582  1.00 20.00     0.027 C 
HETATM    2  C3  UNL     1     -34.657   6.494   3.297  1.00 20.00     0.015 C 
HETATM    3  C4  UNL     1     -32.845   7.940   2.341  1.00 20.00     0.167 C 
HETATM    4  C5  UNL     1     -33.077   5.753   1.454  1.00 20.00     0.179 C 
HETATM    5  C6  UNL     1     -34.013   5.317   2.574  1.00 20.00     0.071 C 
HETATM    6  O8  UNL     1     -32.171   6.774   1.873  1.00 20.00    -0.390 OA
ENDROOT
BRANCH   5   7
HETATM    7  C1  UNL     1     -33.215   4.518   3.593  1.00 20.00     0.237 C 
HETATM    8  O7  UNL     1     -33.693   3.610   4.264  1.00 20.00    -0.306 OA
ENDBRANCH   5   7
TORSDOF 1
