REMARK  1 active torsions:
REMARK  status: ('A' for Active; 'I' for Inactive)
REMARK    1  A    between atoms: C1_1  and  C5_5 
ROOT
HETATM    1  C2  UNL     1     -32.003   6.820   1.777  1.00 20.00     0.193 C 
HETATM    2  C3  UNL     1     -33.120   5.908   1.298  1.00 20.00     0.195 C 
HETATM    3  C4  UNL     1     -33.333   7.498   3.594  1.00 20.00     0.206 C 
HETATM    4  C5  UNL     1     -34.447   6.582   3.115  1.00 20.00     0.206 C 
HETATM    5  O7  UNL     1     -32.558   7.937   2.476  1.00 20.00    -0.386 OA
HETATM    6  O8  UNL     1     -33.895   5.467   2.415  1.00 20.00    -0.375 OA
ENDROOT
BRANCH   4   7
HETATM    7  C1  UNL     1     -35.190   5.989   4.264  1.00 20.00     0.265 C 
HETATM    8  O6  UNL     1     -35.209   4.787   4.509  1.00 20.00    -0.304 OA
ENDBRANCH   4   7
TORSDOF 1
