REMARK  4 active torsions:
REMARK  status: ('A' for Active; 'I' for Inactive)
REMARK    1  A    between atoms: C2_2  and  C5_5 
REMARK    2  A    between atoms: C5_5  and  S9_9 
REMARK    3  A    between atoms: C6_6  and  C7_7 
REMARK    4  A    between atoms: C6_6  and  S9_9 
ROOT
HETATM    1  S9  UNL     1     -33.493   8.257   2.332  1.00 20.00    -0.166 SA
ENDROOT
BRANCH   1   2
HETATM    2  C5  UNL     1     -32.145   8.260   1.129  1.00 20.00     0.108 C 
BRANCH   2   3
HETATM    3  C2  UNL     1     -32.010   9.626   0.483  1.00 20.00     0.154 A 
HETATM    4  C1  UNL     1     -32.926  10.055  -0.628  1.00 20.00     0.201 A 
HETATM    5  O8  UNL     1     -33.112  10.508   0.722  1.00 20.00    -0.380 OA
ENDBRANCH   2   3
ENDBRANCH   1   2
BRANCH   1   6
HETATM    6  C6  UNL     1     -33.353   6.525   2.874  1.00 20.00     0.077 C 
BRANCH   6   7
HETATM    7  C7  UNL     1     -34.405   6.069   3.900  1.00 20.00    -0.013 C 
HETATM    8  C3  UNL     1     -35.837   6.193   3.374  1.00 20.00     0.010 C 
HETATM    9  C4  UNL     1     -34.146   4.656   4.426  1.00 20.00     0.010 C 
ENDBRANCH   6   7
ENDBRANCH   1   6
TORSDOF 4
