REMARK  1 active torsions:
REMARK  status: ('A' for Active; 'I' for Inactive)
REMARK    1  A    between atoms: C4_4  and  S6_6 
ROOT
HETATM    1  C1  UNL     1     -33.427   5.476   2.442  1.00 20.00     0.026 C 
HETATM    2  C2  UNL     1     -32.685   6.387   1.477  1.00 20.00     0.075 C 
HETATM    3  C3  UNL     1     -33.565   7.535   3.744  1.00 20.00     0.088 C 
HETATM    4  C4  UNL     1     -34.392   6.373   3.211  1.00 20.00     0.054 C 
HETATM    5  S5  UNL     1     -32.402   7.922   2.402  1.00 20.00    -0.168 SA
ENDROOT
BRANCH   4   6
HETATM    6  S6  UNL     1     -35.202   5.471   4.564  1.00 20.00    -0.177 SA
HETATM    7  H14 UNL     1     -35.931   6.510   4.990  1.00 20.00     0.102 HD
ENDBRANCH   4   6
TORSDOF 1
