REMARK  3 active torsions:
REMARK  status: ('A' for Active; 'I' for Inactive)
REMARK    1  A    between atoms: C5_5  and  C6_6 
REMARK    2  A    between atoms: C5_5  and  C7_7 
REMARK    3  A    between atoms: C7_7  and  O8_8 
ROOT
HETATM    1  C2  UNL     1     -34.253   7.738   4.833  1.00 20.00     0.045 C 
HETATM    2  C3  UNL     1     -35.543   6.928   2.842  1.00 20.00     0.045 C 
HETATM    3  C7  UNL     1     -34.189   6.892   3.554  1.00 20.00     0.054 C 
ENDROOT
BRANCH   3   4
HETATM    4  C5  UNL     1     -33.032   7.403   2.663  1.00 20.00     0.057 C 
BRANCH   4   5
HETATM    5  C6  UNL     1     -32.844   6.732   1.289  1.00 20.00     0.081 C 
HETATM    6  C1  UNL     1     -32.493   5.256   1.455  1.00 20.00     0.026 C 
HETATM    7 CL9  UNL     1     -31.556   7.515   0.329  1.00 20.00    -0.125 Cl
ENDBRANCH   4   5
ENDBRANCH   3   4
BRANCH   3   8
HETATM    8  O8  UNL     1     -33.921   5.547   3.951  1.00 20.00    -0.386 OA
HETATM    9  C4  UNL     1     -35.099   4.898   4.403  1.00 20.00     0.202 C 
ENDBRANCH   3   8
TORSDOF 3
