REMARK  4 active torsions:
REMARK  status: ('A' for Active; 'I' for Inactive)
REMARK    1  A    between atoms: C5_5  and  C6_6 
REMARK    2  A    between atoms: C5_5  and  C7_7 
REMARK    3  A    between atoms: C6_6  and  S9_9 
REMARK    4  A    between atoms: C7_7  and  O8_8 
ROOT
HETATM    1  C5  UNL     1     -32.930   7.043   2.433  1.00 20.00     0.051 C 
ENDROOT
BRANCH   1   2
HETATM    2  C6  UNL     1     -34.034   7.628   3.337  1.00 20.00     0.043 C 
HETATM    3  C1  UNL     1     -33.519   8.358   4.573  1.00 20.00     0.021 C 
BRANCH   2   4
HETATM    4  S9  UNL     1     -35.116   6.253   3.889  1.00 20.00    -0.178 SA
HETATM    5  H25 UNL     1     -35.994   7.037   4.525  1.00 20.00     0.102 HD
ENDBRANCH   2   4
ENDBRANCH   1   2
BRANCH   1   6
HETATM    6  C7  UNL     1     -32.180   8.034   1.511  1.00 20.00     0.054 C 
HETATM    7  C2  UNL     1     -31.139   8.866   2.261  1.00 20.00     0.045 C 
HETATM    8  C3  UNL     1     -31.505   7.256   0.374  1.00 20.00     0.045 C 
BRANCH   6   9
HETATM    9  O8  UNL     1     -33.129   8.917   0.911  1.00 20.00    -0.386 OA
HETATM   10  C4  UNL     1     -32.493  10.066   0.372  1.00 20.00     0.202 C 
ENDBRANCH   6   9
ENDBRANCH   1   6
TORSDOF 4
