REMARK  3 active torsions:
REMARK  status: ('A' for Active; 'I' for Inactive)
REMARK    1  A    between atoms: C5_5  and  O9_9 
REMARK    2  A    between atoms: C6_6  and  C7_7 
REMARK    3  A    between atoms: C7_7  and  O9_9 
ROOT
HETATM    1  C1  UNL     1     -34.854   6.779   3.564  1.00 20.00     0.085 C 
HETATM    2  C5  UNL     1     -33.514   7.299   3.293  1.00 20.00     0.292 C 
HETATM    3  N8  UNL     1     -35.917   6.367   3.779  1.00 20.00    -0.195 NA
ENDROOT
BRANCH   2   4
HETATM    4  O9  UNL     1     -33.367   7.597   1.914  1.00 20.00    -0.367 OA
BRANCH   4   5
HETATM    5  C7  UNL     1     -31.988   7.659   1.542  1.00 20.00     0.054 C 
HETATM    6  C3  UNL     1     -31.239   8.361   2.675  1.00 20.00     0.045 C 
HETATM    7  C4  UNL     1     -31.475   6.222   1.396  1.00 20.00     0.045 C 
BRANCH   5   8
HETATM    8  C6  UNL     1     -31.853   8.404   0.199  1.00 20.00     0.033 C 
HETATM    9  C2  UNL     1     -32.390   9.830   0.211  1.00 20.00     0.008 C 
ENDBRANCH   5   8
ENDBRANCH   4   5
ENDBRANCH   2   4
TORSDOF 3
