REMARK  3 active torsions:
REMARK  status: ('A' for Active; 'I' for Inactive)
REMARK    1  A    between atoms: C1_1  and  C7_7 
REMARK    2  A    between atoms: C1_1  and  C9_9 
REMARK    3  A    between atoms: C8_8  and  C9_9 
ROOT
HETATM    1  C1  UNL     1     -32.049   8.349   1.555  1.00 20.00     0.131 C 
HETATM    2  O10 UNL     1     -31.407   7.300   1.511  1.00 20.00    -0.298 OA
ENDROOT
BRANCH   1   3
HETATM    3  C7  UNL     1     -31.821   9.441   0.543  1.00 20.00     0.055 A 
HETATM    4  C3  UNL     1     -32.934   9.783  -0.380  1.00 20.00     0.013 A 
HETATM    5  C4  UNL     1     -32.550  10.723   0.723  1.00 20.00     0.013 A 
ENDBRANCH   1   3
BRANCH   1   6
HETATM    6  C9  UNL     1     -33.104   8.623   2.612  1.00 20.00     0.083 C 
BRANCH   6   7
HETATM    7  C8  UNL     1     -33.293   7.462   3.566  1.00 20.00    -0.008 C 
HETATM    8  C5  UNL     1     -33.957   6.186   2.986  1.00 20.00     0.005 C 
HETATM    9  C2  UNL     1     -34.664   6.024   4.348  1.00 20.00     0.001 C 
HETATM   10  C6  UNL     1     -34.503   7.547   4.533  1.00 20.00     0.005 C 
ENDBRANCH   6   7
ENDBRANCH   1   6
TORSDOF 3
