REMARK  1 active torsions:
REMARK  status: ('A' for Active; 'I' for Inactive)
REMARK    1  A    between atoms: C9_9  and  O10_10 
ROOT
HETATM    1  C1  UNL     1     -33.765   6.110   3.381  1.00 20.00     0.001 C 
HETATM    2  C2  UNL     1     -33.008   6.159   2.056  1.00 20.00     0.005 C 
HETATM    3  C3  UNL     1     -34.562   7.364   3.726  1.00 20.00     0.007 C 
HETATM    4  C4  UNL     1     -32.815   8.530   1.171  1.00 20.00     0.005 C 
HETATM    5  C5  UNL     1     -33.912   9.146   2.036  1.00 20.00     0.007 C 
HETATM    6  C6  UNL     1     -31.446   7.860   3.168  1.00 20.00     0.036 C 
HETATM    7  C7  UNL     1     -32.082   7.373   1.857  1.00 20.00    -0.012 C 
HETATM    8  C8  UNL     1     -33.847   8.712   3.508  1.00 20.00     0.014 C 
HETATM    9  C9  UNL     1     -32.393   8.738   4.003  1.00 20.00     0.122 C 
ENDROOT
BRANCH   9  10
HETATM   10  O10 UNL     1     -32.340   8.351   5.373  1.00 20.00    -0.395 OA
HETATM   11  H26 UNL     1     -31.421   8.472   5.660  1.00 20.00     0.210 HD
ENDBRANCH   9  10
TORSDOF 1
