REMARK  2 active torsions:
REMARK  status: ('A' for Active; 'I' for Inactive)
REMARK    1  A    between atoms: C1_1  and  C2_2 
REMARK    2  A    between atoms: C2_2  and  O3_3 
ROOT
HETATM    1  C2  UNL     1     -34.359   6.727   3.414  1.00 20.00     0.226 C 
HETATM    2 CL5  UNL     1     -34.078   7.947   4.682  1.00 20.00    -0.070 Cl
HETATM    3 CL6  UNL     1     -35.874   7.129   2.555  1.00 20.00    -0.070 Cl
ENDROOT
BRANCH   1   4
HETATM    4  C1  UNL     1     -33.212   6.669   2.408  1.00 20.00     0.187 C 
HETATM    5 CL4  UNL     1     -32.519   8.281   2.065  1.00 20.00    -0.125 Cl
ENDBRANCH   1   4
BRANCH   1   6
HETATM    6  O3  UNL     1     -34.532   5.457   4.026  1.00 20.00    -0.361 OA
HETATM    7  H9  UNL     1     -35.269   5.551   4.652  1.00 20.00     0.213 HD
ENDBRANCH   1   6
TORSDOF 2
