REMARK  2 active torsions:
REMARK  status: ('A' for Active; 'I' for Inactive)
REMARK    1  A    between atoms: C1_1  and  C3_3 
REMARK    2  A    between atoms: C2_2  and  C7_7 
ROOT
HETATM    1  C1  UNL     1     -34.024   7.166   3.506  1.00 20.00     0.038 C 
HETATM    2  C2  UNL     1     -33.619   6.335   2.536  1.00 20.00    -0.015 C 
ENDROOT
BRANCH   2   3
HETATM    3  C7  UNL     1     -32.499   6.576   1.532  1.00 20.00    -0.034 C 
HETATM    4  C4  UNL     1     -33.101   6.527   0.117  1.00 20.00     0.018 C 
HETATM    5  C5  UNL     1     -31.772   7.922   1.708  1.00 20.00     0.018 C 
HETATM    6  C6  UNL     1     -31.469   5.442   1.680  1.00 20.00     0.018 C 
ENDBRANCH   2   3
BRANCH   1   7
HETATM    7  C3  UNL     1     -35.136   6.754   4.385  1.00 20.00     0.258 C 
HETATM    8  O8  UNL     1     -35.700   5.674   4.253  1.00 20.00    -0.302 OA
ENDBRANCH   1   7
TORSDOF 2
