REMARK  3 active torsions:
REMARK  status: ('A' for Active; 'I' for Inactive)
REMARK    1  A    between atoms: C2_2  and  C5_5 
REMARK    2  A    between atoms: C2_2  and  C8_8 
REMARK    3  A    between atoms: C7_7  and  C8_8 
ROOT
HETATM    1  C1  UNL     1     -32.544   6.478   1.876  1.00 20.00     0.071 C 
HETATM    2  C8  UNL     1     -32.830   7.820   2.418  1.00 20.00     0.162 C 
HETATM    3  N9  UNL     1     -32.323   5.423   1.448  1.00 20.00    -0.196 NA
ENDROOT
BRANCH   2   4
HETATM    4  C2  UNL     1     -31.612   8.725   2.318  1.00 20.00     0.148 C 
HETATM    5  O10 UNL     1     -30.792   8.883   3.215  1.00 20.00    -0.296 OA
BRANCH   4   6
HETATM    6  C5  UNL     1     -31.444   9.459   1.028  1.00 20.00     0.057 A 
HETATM    7  C3  UNL     1     -32.399   9.176  -0.083  1.00 20.00     0.013 A 
HETATM    8  C4  UNL     1     -32.466  10.480   0.654  1.00 20.00     0.013 A 
ENDBRANCH   4   6
ENDBRANCH   2   4
BRANCH   2   9
HETATM    9  C7  UNL     1     -33.361   7.750   3.857  1.00 20.00     0.022 C 
HETATM   10  C6  UNL     1     -34.624   6.911   4.030  1.00 20.00     0.007 C 
ENDBRANCH   2   9
TORSDOF 3
