REMARK  3 active torsions:
REMARK  status: ('A' for Active; 'I' for Inactive)
REMARK    1  A    between atoms: C4_4  and  C8_8 
REMARK    2  A    between atoms: C7_7  and  N10_10 
REMARK    3  A    between atoms: C8_8  and  N10_10 
ROOT
HETATM    1  C1  UNL     1     -34.907   6.230   4.130  1.00 20.00     0.089 C 
HETATM    2  C7  UNL     1     -34.628   7.640   3.861  1.00 20.00     0.395 C 
HETATM    3  N9  UNL     1     -35.132   5.112   4.345  1.00 20.00    -0.195 NA
ENDROOT
BRANCH   2   4
HETATM    4  N10 UNL     1     -33.250   7.822   3.430  1.00 20.00     0.101 N 
HETATM    5  C6  UNL     1     -32.820   9.201   3.607  1.00 20.00     0.311 C 
BRANCH   4   6
HETATM    6  C8  UNL     1     -33.117   7.437   2.004  1.00 20.00     0.223 C 
HETATM    7  C5  UNL     1     -33.136   5.919   1.901  1.00 20.00     0.043 C 
BRANCH   6   8
HETATM    8  C4  UNL     1     -31.828   8.024   1.447  1.00 20.00     0.018 A 
HETATM    9  C2  UNL     1     -31.665   8.225  -0.034  1.00 20.00     0.007 A 
HETATM   10  C3  UNL     1     -31.815   9.414   0.874  1.00 20.00     0.007 A 
ENDBRANCH   6   8
ENDBRANCH   4   6
ENDBRANCH   2   4
TORSDOF 3
