REMARK  3 active torsions:
REMARK  status: ('A' for Active; 'I' for Inactive)
REMARK    1  A    between atoms: C5_5  and  C9_9 
REMARK    2  A    between atoms: C8_8  and  N10_10 
REMARK    3  A    between atoms: C9_9  and  N10_10 
ROOT
HETATM    1  C1  UNL     1     -32.556   9.557   0.135  1.00 20.00     0.013 C 
HETATM    2  C2  UNL     1     -32.434   8.943   1.160  1.00 20.00    -0.087 C 
HETATM    3  C8  UNL     1     -32.281   8.197   2.411  1.00 20.00     0.364 C 
ENDROOT
BRANCH   3   4
HETATM    4  N10 UNL     1     -33.336   7.205   2.551  1.00 20.00     0.099 N 
HETATM    5  C7  UNL     1     -33.049   6.014   1.767  1.00 20.00     0.311 C 
BRANCH   4   6
HETATM    6  C9  UNL     1     -33.491   6.838   3.980  1.00 20.00     0.223 C 
HETATM    7  C6  UNL     1     -34.211   7.966   4.704  1.00 20.00     0.043 C 
BRANCH   6   8
HETATM    8  C5  UNL     1     -34.258   5.527   4.077  1.00 20.00     0.018 A 
HETATM    9  C3  UNL     1     -33.562   4.221   3.809  1.00 20.00     0.007 A 
HETATM   10  C4  UNL     1     -33.987   4.574   5.208  1.00 20.00     0.007 A 
ENDBRANCH   6   8
ENDBRANCH   4   6
ENDBRANCH   3   4
TORSDOF 3
