REMARK  1 active torsions:
REMARK  status: ('A' for Active; 'I' for Inactive)
REMARK    1  A    between atoms: C6_6  and  N7_7 
ROOT
HETATM    1  C1  UNL     1     -33.949   6.296   3.294  1.00 20.00     0.003 C 
HETATM    2  C2  UNL     1     -33.456   6.206   1.854  1.00 20.00     0.030 C 
HETATM    3  C3  UNL     1     -34.122   7.750   3.720  1.00 20.00     0.030 C 
HETATM    4  C4  UNL     1     -32.215   7.075   1.636  1.00 20.00     0.274 C 
HETATM    5  C5  UNL     1     -32.858   8.566   3.438  1.00 20.00     0.274 C 
HETATM    6  N7  UNL     1     -32.380   8.474   2.053  1.00 20.00     0.101 N 
ENDROOT
BRANCH   6   7
HETATM    7  C6  UNL     1     -33.217   9.232   1.127  1.00 20.00     0.386 C 
HETATM    8 CL8  UNL     1     -32.227   9.710  -0.251  1.00 20.00    -0.098 Cl
ENDBRANCH   6   7
TORSDOF 1
