REMARK  1 active torsions:
REMARK  status: ('A' for Active; 'I' for Inactive)
REMARK    1  A    between atoms: C1_1  and  C3_3 
ROOT
HETATM    1  C2  UNL     1     -31.392   7.601   2.334  1.00 20.00     0.054 A 
HETATM    2  C3  UNL     1     -32.833   8.013   2.503  1.00 20.00     0.109 A 
HETATM    3  C4  UNL     1     -32.470   6.885   1.586  1.00 20.00     0.183 A 
HETATM    4  F6  UNL     1     -32.771   5.594   1.982  1.00 20.00    -0.249 F 
ENDROOT
BRANCH   2   5
HETATM    5  C1  UNL     1     -33.518   7.727   3.768  1.00 20.00     0.225 C 
HETATM    6  O5  UNL     1     -33.434   8.483   4.732  1.00 20.00    -0.279 OA
HETATM    7 CL7  UNL     1     -34.416   6.241   3.705  1.00 20.00    -0.043 Cl
ENDBRANCH   2   5
TORSDOF 1
