REMARK  0 active torsions:
REMARK  status: ('A' for Active; 'I' for Inactive)
ROOT
HETATM    1  C1  UNL     1     -32.596   9.538   0.314  1.00 20.00    -0.071 C 
HETATM    2  C2  UNL     1     -32.217   6.120   1.398  1.00 20.00     0.220 C 
HETATM    3  C3  UNL     1     -32.972   9.972  -0.899  1.00 20.00     0.016 C 
HETATM    4  C4  UNL     1     -33.104  10.203   1.568  1.00 20.00     0.037 C 
HETATM    5  C5  UNL     1     -31.672   8.365   0.486  1.00 20.00     0.159 C 
HETATM    6  C6  UNL     1     -32.805   5.399   2.591  1.00 20.00     0.103 C 
HETATM    7  C7  UNL     1     -32.414   9.651   2.817  1.00 20.00     0.030 C 
HETATM    8  C8  UNL     1     -34.068   6.120   3.040  1.00 20.00     0.015 C 
HETATM    9  C9  UNL     1     -33.790   7.576   3.462  1.00 20.00     0.005 C 
HETATM   10  C10 UNL     1     -32.458   8.111   2.873  1.00 20.00     0.091 C 
HETATM   11  C11 UNL     1     -33.791   7.685   4.993  1.00 20.00     0.012 C 
HETATM   12  N12 UNL     1     -32.178   7.507   1.557  1.00 20.00    -0.343 N 
HETATM   13  O13 UNL     1     -31.820   5.502   0.412  1.00 20.00    -0.273 OA
ENDROOT
TORSDOF 0
