REMARK  2 active torsions:
REMARK  status: ('A' for Active; 'I' for Inactive)
REMARK    1  A    between atoms: C1_1  and  C3_3 
REMARK    2  A    between atoms: C1_1  and  C8_8 
ROOT
HETATM    1  C2  UNL     1     -32.834   5.561   3.401  1.00 20.00     0.022 A 
HETATM    2  C3  UNL     1     -33.381   6.333   2.229  1.00 20.00     0.064 A 
HETATM    3  C4  UNL     1     -33.839   6.661   3.640  1.00 20.00    -0.037 A 
HETATM    4  C5  UNL     1     -35.241   6.265   4.022  1.00 20.00     0.015 C 
HETATM    5  C6  UNL     1     -33.354   7.919   4.312  1.00 20.00     0.015 C 
ENDROOT
BRANCH   2   6
HETATM    6  C1  UNL     1     -32.499   7.245   1.490  1.00 20.00     0.131 C 
HETATM    7  O9  UNL     1     -31.278   7.104   1.516  1.00 20.00    -0.298 OA
BRANCH   6   8
HETATM    8  C8  UNL     1     -33.185   8.350   0.708  1.00 20.00     0.074 C 
HETATM    9  C7  UNL     1     -32.200   9.262  -0.001  1.00 20.00     0.013 C 
ENDBRANCH   6   8
ENDBRANCH   2   6
TORSDOF 2
