REMARK  1 active torsions:
REMARK  status: ('A' for Active; 'I' for Inactive)
REMARK    1  A    between atoms: C4_4  and  C8_8 
ROOT
HETATM    1  C1  UNL     1     -33.039   6.532   2.076  1.00 20.00    -0.057 C 
HETATM    2  C2  UNL     1     -32.444   5.502   1.454  1.00 20.00     0.017 C 
HETATM    3  C5  UNL     1     -32.530   7.939   1.910  1.00 20.00     0.038 C 
HETATM    4  C6  UNL     1     -32.210   8.556   3.270  1.00 20.00     0.030 C 
HETATM    5  C7  UNL     1     -33.057   7.975   4.399  1.00 20.00     0.169 C 
HETATM    6  C8  UNL     1     -34.239   6.417   3.001  1.00 20.00     0.171 C 
HETATM    7  O9  UNL     1     -34.322   7.535   3.908  1.00 20.00    -0.378 OA
ENDROOT
BRANCH   6   8
HETATM    8  C4  UNL     1     -34.317   5.148   3.794  1.00 20.00    -0.001 C 
HETATM    9  C3  UNL     1     -35.308   4.856   4.643  1.00 20.00     0.010 C 
ENDBRANCH   6   8
TORSDOF 1
