REMARK  0 active torsions:
REMARK  status: ('A' for Active; 'I' for Inactive)
ROOT
HETATM    1  C1  UNL     1     -33.036   8.160   3.752  1.00 20.00    -0.030 C 
HETATM    2  C2  UNL     1     -33.934   7.253   4.166  1.00 20.00    -0.020 C 
HETATM    3  C3  UNL     1     -32.425   5.720   1.852  1.00 20.00    -0.021 C 
HETATM    4  C4  UNL     1     -33.200   5.189   2.806  1.00 20.00    -0.050 C 
HETATM    5  C5  UNL     1     -32.106   8.109   2.575  1.00 20.00     0.030 C 
HETATM    6  C6  UNL     1     -32.488   7.155   1.445  1.00 20.00     0.031 C 
HETATM    7  C7  UNL     1     -33.144   3.753   3.212  1.00 20.00     0.202 C 
HETATM    8  C8  UNL     1     -34.412   4.874   4.760  1.00 20.00     0.180 C 
HETATM    9  C9  UNL     1     -34.244   5.886   3.627  1.00 20.00     0.062 C 
HETATM   10  O10 UNL     1     -34.203   3.587   4.166  1.00 20.00    -0.386 OA
ENDROOT
TORSDOF 0
