REMARK  1 active torsions:
REMARK  status: ('A' for Active; 'I' for Inactive)
REMARK    1  A    between atoms: C7_7  and  O11_11 
ROOT
HETATM    1  C1  UNL     1     -34.723   5.257   4.128  1.00 20.00    -0.027 C 
HETATM    2  C2  UNL     1     -34.971   6.562   4.343  1.00 20.00     0.001 C 
HETATM    3  C3  UNL     1     -33.644   4.750   3.197  1.00 20.00     0.036 C 
HETATM    4  C4  UNL     1     -31.213   7.053   1.369  1.00 20.00     0.001 C 
HETATM    5  C5  UNL     1     -32.076   8.029   2.187  1.00 20.00     0.008 C 
HETATM    6  C6  UNL     1     -31.735   5.635   1.672  1.00 20.00     0.010 C 
HETATM    7  C7  UNL     1     -34.175   7.677   3.703  1.00 20.00     0.145 C 
HETATM    8  C8  UNL     1     -32.889   7.120   3.100  1.00 20.00     0.026 C 
HETATM    9  C9  UNL     1     -33.137   5.858   2.254  1.00 20.00    -0.035 C 
HETATM   10  C10 UNL     1     -34.146   6.058   1.097  1.00 20.00     0.016 C 
ENDROOT
BRANCH   7  11
HETATM   11  O11 UNL     1     -33.853   8.637   4.705  1.00 20.00    -0.391 OA
HETATM   12  H27 UNL     1     -34.696   8.963   5.057  1.00 20.00     0.210 HD
ENDBRANCH   7  11
TORSDOF 1
