REMARK  1 active torsions:
REMARK  status: ('A' for Active; 'I' for Inactive)
REMARK    1  A    between atoms: C4_4  and  C6_6 
ROOT
HETATM    1  C1  UNL     1     -33.280   5.252   2.361  1.00 20.00     0.089 A 
HETATM    2  C2  UNL     1     -33.492   7.543   3.068  1.00 20.00     0.044 A 
HETATM    3  C3  UNL     1     -33.878   6.156   3.149  1.00 20.00    -0.053 A 
HETATM    4  C4  UNL     1     -32.539   7.899   2.201  1.00 20.00     0.080 A 
HETATM    5  C5  UNL     1     -32.227   5.653   1.404  1.00 20.00     0.288 A 
HETATM    6  C8  UNL     1     -34.947   5.797   4.134  1.00 20.00     0.048 C 
HETATM    7  O11 UNL     1     -31.686   4.819   0.686  1.00 20.00    -0.260 OA
HETATM    8  O12 UNL     1     -31.890   6.979   1.358  1.00 20.00    -0.276 OA
ENDROOT
BRANCH   4   9
HETATM    9  C6  UNL     1     -32.084   9.251   2.042  1.00 20.00     0.039 C 
HETATM   10  C7  UNL     1     -32.142   9.981   0.896  1.00 20.00    -0.085 C 
HETATM   11  C9  UNL     1     -31.662  11.397   0.740  1.00 20.00     0.043 C 
HETATM   12  C10 UNL     1     -32.721   9.389  -0.363  1.00 20.00     0.043 C 
ENDBRANCH   4   9
TORSDOF 1
