REMARK  0 active torsions:
REMARK  status: ('A' for Active; 'I' for Inactive)
ROOT
HETATM    1  C1  UNL     1     -32.599   7.556   2.313  1.00 20.00    -0.057 C 
HETATM    2  C2  UNL     1     -31.625   7.738   1.417  1.00 20.00     0.017 C 
HETATM    3  C3  UNL     1     -33.009   8.538   3.356  1.00 20.00     0.205 C 
HETATM    4  C4  UNL     1     -32.769   5.158   3.122  1.00 20.00     0.040 C 
HETATM    5  C5  UNL     1     -33.918   4.532   3.879  1.00 20.00     0.172 C 
HETATM    6  C6  UNL     1     -33.441   6.337   2.449  1.00 20.00     0.073 C 
HETATM    7  C7  UNL     1     -34.474   6.756   3.483  1.00 20.00     0.268 C 
HETATM    8  O8  UNL     1     -33.869   7.811   4.248  1.00 20.00    -0.356 OA
HETATM    9  O9  UNL     1     -34.762   5.612   4.297  1.00 20.00    -0.361 OA
ENDROOT
TORSDOF 0
