REMARK  1 active torsions:
REMARK  status: ('A' for Active; 'I' for Inactive)
REMARK    1  A    between atoms: C2_2  and  C3_3 
ROOT
HETATM    1  C1  UNL     1     -32.488   8.238   2.451  1.00 20.00     0.112 C 
HETATM    2  C2  UNL     1     -33.163   7.119   2.733  1.00 20.00     0.090 C 
HETATM    3 CL6  UNL     1     -31.223   8.372   1.297  1.00 20.00    -0.095 Cl
HETATM    4 CL7  UNL     1     -32.837   5.613   1.946  1.00 20.00    -0.080 Cl
ENDROOT
BRANCH   2   5
HETATM    5  C3  UNL     1     -34.256   7.093   3.758  1.00 20.00     0.167 C 
HETATM    6  C4  UNL     1     -34.193   8.042   4.930  1.00 20.00     0.097 C 
HETATM    7  O5  UNL     1     -35.198   6.306   3.651  1.00 20.00    -0.292 OA
ENDBRANCH   2   5
TORSDOF 1
