REMARK  2 active torsions:
REMARK  status: ('A' for Active; 'I' for Inactive)
REMARK    1  A    between atoms: C1_1  and  C3_3 
REMARK    2  A    between atoms: C3_3  and  C4_4 
ROOT
HETATM    1  C2  UNL     1     -33.403   7.676   4.267  1.00 20.00     0.069 C 
HETATM    2  C3  UNL     1     -33.805   6.877   3.019  1.00 20.00     0.264 C 
HETATM    3  O5  UNL     1     -34.925   7.358   2.518  1.00 20.00    -0.210 OA
ENDROOT
BRANCH   2   4
HETATM    4  C1  UNL     1     -32.742   6.965   1.904  1.00 20.00     0.265 C 
HETATM    5  O6  UNL     1     -32.177   5.963   1.467  1.00 20.00    -0.276 OA
HETATM    6 CL10 UNL     1     -32.389   8.588   1.336  1.00 20.00    -0.040 Cl
ENDBRANCH   2   4
BRANCH   2   7
HETATM    7  C4  UNL     1     -34.034   5.410   3.418  1.00 20.00     0.429 C 
HETATM    8  F7  UNL     1     -32.901   4.828   3.878  1.00 20.00    -0.167 F 
HETATM    9  F8  UNL     1     -34.483   4.655   2.389  1.00 20.00    -0.167 F 
HETATM   10  F9  UNL     1     -34.953   5.321   4.410  1.00 20.00    -0.167 F 
ENDBRANCH   2   7
TORSDOF 2
