REMARK  4 active torsions:
REMARK  status: ('A' for Active; 'I' for Inactive)
REMARK    1  A    between atoms: C2_2  and  C5_5 
REMARK    2  A    between atoms: C2_2  and  C6_6 
REMARK    3  A    between atoms: C5_5  and  C7_7 
REMARK    4  A    between atoms: C6_6  and  C8_8 
ROOT
HETATM    1  C1  UNL     1     -35.156   6.805   3.603  1.00 20.00     0.207 A 
HETATM    2  C2  UNL     1     -33.855   6.127   3.245  1.00 20.00     0.082 A 
HETATM    3  O9  UNL     1     -33.894   7.480   3.718  1.00 20.00    -0.375 OA
ENDROOT
BRANCH   2   4
HETATM    4  C5  UNL     1     -33.222   5.153   4.227  1.00 20.00     0.040 C 
BRANCH   4   5
HETATM    5  C7  UNL     1     -33.815   3.753   4.087  1.00 20.00    -0.002 C 
HETATM    6  C3  UNL     1     -33.163   2.773   5.049  1.00 20.00     0.005 C 
ENDBRANCH   4   5
ENDBRANCH   2   4
BRANCH   2   7
HETATM    7  C6  UNL     1     -33.459   6.002   1.810  1.00 20.00     0.040 C 
BRANCH   7   8
HETATM    8  C8  UNL     1     -31.980   6.347   1.578  1.00 20.00    -0.002 C 
HETATM    9  C4  UNL     1     -31.653   7.782   1.961  1.00 20.00     0.005 C 
ENDBRANCH   7   8
ENDBRANCH   2   7
TORSDOF 4
