REMARK  1 active torsions:
REMARK  status: ('A' for Active; 'I' for Inactive)
REMARK    1  A    between atoms: C5_5  and  C6_6 
ROOT
HETATM    1  C1  UNL     1     -33.961   5.558   3.593  1.00 20.00     0.139 C 
HETATM    2  C2  UNL     1     -35.068   6.168   4.416  1.00 20.00     0.079 C 
HETATM    3  C3  UNL     1     -34.552   7.584   4.640  1.00 20.00     0.008 C 
HETATM    4  C4  UNL     1     -33.736   7.892   3.392  1.00 20.00     0.021 C 
HETATM    5  C5  UNL     1     -32.966   6.598   3.119  1.00 20.00     0.163 C 
HETATM    6  O7  UNL     1     -33.884   4.362   3.341  1.00 20.00    -0.297 OA
ENDROOT
BRANCH   5   7
HETATM    7  C6  UNL     1     -32.584   6.432   1.662  1.00 20.00     0.398 C 
HETATM    8  F8  UNL     1     -31.996   5.239   1.462  1.00 20.00    -0.170 F 
HETATM    9  F9  UNL     1     -33.674   6.506   0.877  1.00 20.00    -0.170 F 
HETATM   10  F10 UNL     1     -31.724   7.398   1.288  1.00 20.00    -0.170 F 
ENDBRANCH   5   7
TORSDOF 1
