REMARK  2 active torsions:
REMARK  status: ('A' for Active; 'I' for Inactive)
REMARK    1  A    between atoms: C1_1  and  C3_3 
REMARK    2  A    between atoms: C3_3  and  C4_4 
ROOT
HETATM    1  C2  UNL     1     -33.108   5.000   3.763  1.00 20.00     0.069 C 
HETATM    2  C3  UNL     1     -33.686   6.058   2.811  1.00 20.00     0.264 C 
HETATM    3  O5  UNL     1     -34.623   5.520   2.056  1.00 20.00    -0.210 OA
ENDROOT
BRANCH   2   4
HETATM    4  C1  UNL     1     -32.616   6.630   1.857  1.00 20.00     0.265 C 
HETATM    5  O6  UNL     1     -32.335   7.827   1.842  1.00 20.00    -0.276 OA
HETATM    6 CL10 UNL     1     -31.862   5.455   0.793  1.00 20.00    -0.040 Cl
ENDBRANCH   2   4
BRANCH   2   7
HETATM    7  C4  UNL     1     -34.311   7.189   3.645  1.00 20.00     0.429 C 
HETATM    8  F7  UNL     1     -34.907   8.123   2.865  1.00 20.00    -0.167 F 
HETATM    9  F8  UNL     1     -33.402   7.831   4.415  1.00 20.00    -0.167 F 
HETATM   10  F9  UNL     1     -35.266   6.703   4.474  1.00 20.00    -0.167 F 
ENDBRANCH   2   7
TORSDOF 2
