REMARK  1 active torsions:
REMARK  status: ('A' for Active; 'I' for Inactive)
REMARK    1  A    between atoms: C4_4  and  C10_10 
ROOT
HETATM    1  C1  UNL     1     -32.367   8.439   2.570  1.00 20.00     0.008 C 
HETATM    2  C2  UNL     1     -33.174   7.565   3.530  1.00 20.00     0.035 C 
HETATM    3  C3  UNL     1     -32.609   6.829   0.636  1.00 20.00     0.039 C 
HETATM    4  C4  UNL     1     -32.851   8.267   1.122  1.00 20.00    -0.005 C 
HETATM    5  C5  UNL     1     -33.332   6.157   3.059  1.00 20.00     0.151 A 
HETATM    6  C6  UNL     1     -33.090   5.805   1.616  1.00 20.00     0.151 A 
HETATM    7  O11 UNL     1     -32.130   5.504   2.647  1.00 20.00    -0.375 OA
ENDROOT
BRANCH   4   8
HETATM    8  C10 UNL     1     -32.158   9.266   0.197  1.00 20.00    -0.048 C 
HETATM    9  C7  UNL     1     -32.439  10.700   0.676  1.00 20.00     0.015 C 
HETATM   10  C8  UNL     1     -32.686   9.099  -1.237  1.00 20.00     0.015 C 
HETATM   11  C9  UNL     1     -30.640   9.017   0.209  1.00 20.00     0.015 C 
ENDBRANCH   4   8
TORSDOF 1
