REMARK  2 active torsions:
REMARK  status: ('A' for Active; 'I' for Inactive)
REMARK    1  A    between atoms: C1_1  and  C5_5 
REMARK    2  A    between atoms: C4_4  and  C5_5 
ROOT
HETATM    1  C5  UNL     1     -33.530   7.543   3.169  1.00 20.00     0.101 C 
ENDROOT
BRANCH   1   2
HETATM    2  C1  UNL     1     -32.465   7.617   2.089  1.00 20.00     0.219 C 
HETATM    3  O6  UNL     1     -32.384   8.554   1.301  1.00 20.00    -0.280 OA
HETATM    4 CL7  UNL     1     -31.411   6.231   2.122  1.00 20.00    -0.044 Cl
ENDBRANCH   1   2
BRANCH   1   5
HETATM    5  C4  UNL     1     -34.395   6.333   3.080  1.00 20.00    -0.006 A 
HETATM    6  C2  UNL     1     -34.006   5.069   3.797  1.00 20.00     0.005 A 
HETATM    7  C3  UNL     1     -35.181   5.875   4.277  1.00 20.00     0.005 A 
ENDBRANCH   1   5
TORSDOF 2
