REMARK  2 active torsions:
REMARK  status: ('A' for Active; 'I' for Inactive)
REMARK    1  A    between atoms: C3_3  and  C5_5 
REMARK    2  A    between atoms: C4_4  and  C8_8 
ROOT
HETATM    1  C1  UNL     1     -33.105   5.643   1.459  1.00 20.00     0.023 A 
HETATM    2  C2  UNL     1     -32.597   6.691   0.637  1.00 20.00     0.016 A 
HETATM    3  C3  UNL     1     -33.413   6.084   2.727  1.00 20.00     0.043 A 
HETATM    4  C4  UNL     1     -32.537   7.892   1.308  1.00 20.00    -0.013 A 
HETATM    5  S10 UNL     1     -33.090   7.754   2.923  1.00 20.00    -0.091 SA
ENDROOT
BRANCH   4   6
HETATM    6  C8  UNL     1     -32.034   9.200   0.690  1.00 20.00     0.026 A 
HETATM    7  C6  UNL     1     -32.939  10.413   0.714  1.00 20.00     0.010 A 
HETATM    8  C7  UNL     1     -32.685   9.705  -0.580  1.00 20.00     0.010 A 
ENDBRANCH   4   6
BRANCH   3   9
HETATM    9  C5  UNL     1     -33.939   5.345   3.828  1.00 20.00     0.277 C 
HETATM   10  O9  UNL     1     -34.208   4.126   3.789  1.00 20.00    -0.301 OA
ENDBRANCH   3   9
TORSDOF 2
