REMARK  2 active torsions:
REMARK  status: ('A' for Active; 'I' for Inactive)
REMARK    1  A    between atoms: C4_4  and  C11_11 
REMARK    2  A    between atoms: C10_10  and  C11_11 
ROOT
HETATM    1  C1  UNL     1     -32.448   5.749   2.330  1.00 20.00     0.008 C 
HETATM    2  C2  UNL     1     -33.358   4.734   3.023  1.00 20.00     0.035 C 
HETATM    3  C3  UNL     1     -33.580   7.745   3.379  1.00 20.00     0.040 C 
HETATM    4  C4  UNL     1     -33.184   7.069   2.056  1.00 20.00    -0.004 C 
HETATM    5  C5  UNL     1     -34.079   5.321   4.194  1.00 20.00     0.151 A 
HETATM    6  C6  UNL     1     -34.224   6.811   4.353  1.00 20.00     0.151 A 
HETATM    7  O12 UNL     1     -35.290   6.014   3.833  1.00 20.00    -0.375 OA
ENDROOT
BRANCH   4   8
HETATM    8  C11 UNL     1     -32.319   8.008   1.217  1.00 20.00    -0.044 C 
HETATM    9  C8  UNL     1     -31.031   8.336   1.998  1.00 20.00     0.015 C 
HETATM   10  C9  UNL     1     -31.935   7.297  -0.096  1.00 20.00     0.015 C 
BRANCH   8  11
HETATM   11  C10 UNL     1     -33.129   9.303   0.924  1.00 20.00     0.004 C 
HETATM   12  C7  UNL     1     -32.423  10.367   0.092  1.00 20.00     0.006 C 
ENDBRANCH   8  11
ENDBRANCH   4   8
TORSDOF 2
