REMARK  2 active torsions:
REMARK  status: ('A' for Active; 'I' for Inactive)
REMARK    1  A    between atoms: C4_4  and  C11_11 
REMARK    2  A    between atoms: C10_10  and  C11_11 
ROOT
HETATM    1  C1  UNL     1     -33.548   5.908   2.375  1.00 20.00     0.008 C 
HETATM    2  C2  UNL     1     -34.255   4.861   3.238  1.00 20.00     0.035 C 
HETATM    3  C3  UNL     1     -34.213   7.834   3.871  1.00 20.00     0.040 C 
HETATM    4  C4  UNL     1     -33.039   7.079   3.229  1.00 20.00    -0.004 C 
HETATM    5  C5  UNL     1     -35.241   5.450   4.192  1.00 20.00     0.151 A 
HETATM    6  C6  UNL     1     -35.191   6.914   4.534  1.00 20.00     0.151 A 
HETATM    7  O12 UNL     1     -36.173   6.374   3.628  1.00 20.00    -0.375 OA
ENDROOT
BRANCH   4   8
HETATM    8  C11 UNL     1     -32.189   8.031   2.389  1.00 20.00    -0.044 C 
HETATM    9  C8  UNL     1     -31.669   9.168   3.292  1.00 20.00     0.015 C 
HETATM   10  C9  UNL     1     -30.982   7.258   1.820  1.00 20.00     0.015 C 
BRANCH   8  11
HETATM   11  C10 UNL     1     -33.069   8.601   1.240  1.00 20.00     0.004 C 
HETATM   12  C7  UNL     1     -32.387   9.578   0.290  1.00 20.00     0.006 C 
ENDBRANCH   8  11
ENDBRANCH   4   8
TORSDOF 2
