REMARK  1 active torsions:
REMARK  status: ('A' for Active; 'I' for Inactive)
REMARK    1  A    between atoms: C2_2  and  C6_6 
REMARK       I    between atoms: C2_2  and  N7_7 
ROOT
HETATM    1  C1  UNL     1     -32.447   8.550   1.398  1.00 20.00     0.166 C 
HETATM    2  C2  UNL     1     -33.155   6.581   2.067  1.00 20.00     0.252 C 
HETATM    3  N7  UNL     1     -32.328   7.686   2.184  1.00 20.00    -0.199 NA
HETATM    4  O8  UNL     1     -33.215   5.830   1.093  1.00 20.00    -0.270 OA
HETATM    5  S9  UNL     1     -32.578   9.744   0.352  1.00 20.00    -0.055 SA
ENDROOT
BRANCH   2   6
HETATM    6  C6  UNL     1     -34.041   6.351   3.311  1.00 20.00     0.032 C 
HETATM    7  C3  UNL     1     -33.749   7.438   4.355  1.00 20.00     0.025 C 
HETATM    8  C4  UNL     1     -35.526   6.422   2.920  1.00 20.00     0.025 C 
HETATM    9  C5  UNL     1     -33.748   4.962   3.897  1.00 20.00     0.025 C 
ENDBRANCH   2   6
TORSDOF 1
