REMARK  0 active torsions:
REMARK  status: ('A' for Active; 'I' for Inactive)
ROOT
HETATM    1  C1  UNL     1     -31.850   7.812   0.843  1.00 20.00    -0.026 C 
HETATM    2  C2  UNL     1     -34.602   7.024   4.788  1.00 20.00    -0.027 C 
HETATM    3  C3  UNL     1     -31.994   6.542   0.438  1.00 20.00    -0.001 C 
HETATM    4  C4  UNL     1     -33.506   7.629   4.311  1.00 20.00     0.005 C 
HETATM    5  C5  UNL     1     -35.147   5.774   4.164  1.00 20.00     0.057 C 
HETATM    6  C6  UNL     1     -32.385   8.283   2.165  1.00 20.00     0.066 C 
HETATM    7  C7  UNL     1     -32.740   5.526   1.257  1.00 20.00     0.300 C 
HETATM    8  C8  UNL     1     -34.165   5.118   3.184  1.00 20.00     0.277 C 
HETATM    9  C9  UNL     1     -32.771   7.114   3.098  1.00 20.00     0.249 C 
HETATM   10  N10 UNL     1     -33.559   6.134   2.317  1.00 20.00     0.100 N 
ENDROOT
TORSDOF 0
