REMARK  0 active torsions:
REMARK  status: ('A' for Active; 'I' for Inactive)
ROOT
HETATM    1  C1  UNL     1     -34.615   5.453   3.118  1.00 20.00     0.030 A 
HETATM    2  C2  UNL     1     -35.239   6.108   4.159  1.00 20.00     0.141 A 
HETATM    3  C3  UNL     1     -33.534   6.073   2.499  1.00 20.00    -0.030 A 
HETATM    4  C4  UNL     1     -33.133   7.313   2.989  1.00 20.00     0.063 A 
HETATM    5  C5  UNL     1     -32.798   5.375   1.388  1.00 20.00     0.041 C 
HETATM    6  C6  UNL     1     -31.995   8.074   2.366  1.00 20.00     0.062 C 
HETATM    7  C7  UNL     1     -31.887   6.309   0.592  1.00 20.00     0.005 C 
HETATM    8  C8  UNL     1     -31.071   7.190   1.530  1.00 20.00     0.006 C 
HETATM    9  N9  UNL     1     -34.842   7.315   4.604  1.00 20.00    -0.162 NA
HETATM   10  N10 UNL     1     -33.779   7.924   4.010  1.00 20.00    -0.155 NA
ENDROOT
TORSDOF 0
