REMARK  0 active torsions:
REMARK  status: ('A' for Active; 'I' for Inactive)
ROOT
HETATM    1  C1  UNL     1     -31.538   6.512   0.715  1.00 20.00    -0.027 C 
HETATM    2  C2  UNL     1     -35.144   5.784   4.146  1.00 20.00    -0.027 C 
HETATM    3  C3  UNL     1     -31.469   7.792   1.096  1.00 20.00    -0.001 C 
HETATM    4  C4  UNL     1     -35.039   7.071   4.493  1.00 20.00    -0.001 C 
HETATM    5  C5  UNL     1     -32.520   5.562   1.327  1.00 20.00     0.063 C 
HETATM    6  C6  UNL     1     -34.322   5.199   3.041  1.00 20.00     0.063 C 
HETATM    7  C7  UNL     1     -32.359   8.356   2.164  1.00 20.00     0.300 C 
HETATM    8  C8  UNL     1     -34.088   8.007   3.808  1.00 20.00     0.300 C 
HETATM    9  C9  UNL     1     -33.620   6.260   2.161  1.00 20.00     0.230 C 
HETATM   10  N10 UNL     1     -33.057   7.347   2.983  1.00 20.00     0.100 N 
ENDROOT
TORSDOF 0
