REMARK  0 active torsions:
REMARK  status: ('A' for Active; 'I' for Inactive)
ROOT
HETATM    1  C1  UNL     1     -33.791   4.118   4.032  1.00 20.00     0.066 C 
HETATM    2  C2  UNL     1     -32.137   7.178   1.734  1.00 20.00     0.032 C 
HETATM    3  C3  UNL     1     -32.634   5.745   1.844  1.00 20.00     0.039 C 
HETATM    4  C4  UNL     1     -35.561   5.833   4.156  1.00 20.00     0.051 C 
HETATM    5  C5  UNL     1     -32.811   7.852   2.919  1.00 20.00     0.273 C 
HETATM    6  C6  UNL     1     -34.702   7.084   4.284  1.00 20.00     0.274 C 
HETATM    7  C7  UNL     1     -34.736   4.924   3.244  1.00 20.00     0.128 C 
HETATM    8  C8  UNL     1     -34.078   5.928   2.293  1.00 20.00     0.240 C 
HETATM    9  N9  UNL     1     -33.046   3.481   4.654  1.00 20.00    -0.197 NA
HETATM   10  N10 UNL     1     -34.149   7.257   2.941  1.00 20.00     0.094 N 
ENDROOT
TORSDOF 0
