REMARK  0 active torsions:
REMARK  status: ('A' for Active; 'I' for Inactive)
ROOT
HETATM    1  C1  UNL     1     -34.789   5.440   4.215  1.00 20.00     0.101 C 
HETATM    2  C2  UNL     1     -34.002   7.849   4.391  1.00 20.00     0.042 A 
HETATM    3  C3  UNL     1     -33.231   8.668   3.596  1.00 20.00     0.092 A 
HETATM    4  C4  UNL     1     -34.084   6.587   3.751  1.00 20.00     0.068 A 
HETATM    5  C5  UNL     1     -33.359   6.667   2.578  1.00 20.00     0.032 A 
HETATM    6  C6  UNL     1     -33.125   5.661   1.501  1.00 20.00     0.059 C 
HETATM    7  C7  UNL     1     -31.943   6.043   0.607  1.00 20.00     0.008 C 
HETATM    8  C8  UNL     1     -32.019   7.516   0.205  1.00 20.00     0.021 C 
HETATM    9  C9  UNL     1     -31.980   8.415   1.440  1.00 20.00     0.128 C 
HETATM   10  N10 UNL     1     -35.363   4.505   4.594  1.00 20.00    -0.191 NA
HETATM   11  N11 UNL     1     -32.850   7.942   2.502  1.00 20.00    -0.359 N 
ENDROOT
TORSDOF 0
