REMARK  1 active torsions:
REMARK  status: ('A' for Active; 'I' for Inactive)
REMARK    1  A    between atoms: C3_3  and  C5_5 
ROOT
HETATM    1  C1  UNL     1     -31.521   7.078   1.514  1.00 20.00     0.034 A 
HETATM    2  C2  UNL     1     -31.965   8.015   2.422  1.00 20.00     0.092 A 
HETATM    3  C3  UNL     1     -32.409   5.975   1.570  1.00 20.00     0.025 A 
HETATM    4  C4  UNL     1     -33.376   6.265   2.513  1.00 20.00     0.024 A 
HETATM    5  C6  UNL     1     -34.535   5.465   3.005  1.00 20.00     0.058 C 
HETATM    6  C7  UNL     1     -35.559   6.331   3.741  1.00 20.00     0.008 C 
HETATM    7  C8  UNL     1     -34.866   7.268   4.731  1.00 20.00     0.021 C 
HETATM    8  C9  UNL     1     -33.901   8.203   4.002  1.00 20.00     0.128 C 
HETATM    9  N10 UNL     1     -33.087   7.509   3.020  1.00 20.00    -0.359 N 
ENDROOT
BRANCH   3  10
HETATM   10  C5  UNL     1     -32.340   4.762   0.807  1.00 20.00     0.272 C 
HETATM   11  O11 UNL     1     -31.453   4.521  -0.033  1.00 20.00    -0.301 OA
ENDBRANCH   3  10
TORSDOF 1
