REMARK  0 active torsions:
REMARK  status: ('A' for Active; 'I' for Inactive)
ROOT
HETATM    1  C1  UNL     1     -32.612   5.464   1.749  1.00 20.00     0.027 A 
HETATM    2  C2  UNL     1     -31.612   6.183   1.108  1.00 20.00     0.116 A 
HETATM    3  C3  UNL     1     -32.220   8.178   2.106  1.00 20.00     0.123 A 
HETATM    4  C4  UNL     1     -33.424   6.176   2.611  1.00 20.00    -0.045 A 
HETATM    5  C5  UNL     1     -33.230   7.546   2.794  1.00 20.00    -0.034 A 
HETATM    6  C6  UNL     1     -34.241   8.124   3.726  1.00 20.00     0.041 C 
HETATM    7  C7  UNL     1     -34.740   6.854   4.433  1.00 20.00     0.014 C 
HETATM    8  C8  UNL     1     -34.606   5.703   3.411  1.00 20.00     0.015 C 
HETATM    9  C9  UNL     1     -34.431   4.351   4.084  1.00 20.00     0.015 C 
HETATM   10  N10 UNL     1     -31.395   7.517   1.263  1.00 20.00    -0.273 NA
ENDROOT
TORSDOF 0
