REMARK  2 active torsions:
REMARK  status: ('A' for Active; 'I' for Inactive)
REMARK    1  A    between atoms: C1_1  and  C8_8 
REMARK    2  A    between atoms: C5_5  and  C8_8 
ROOT
HETATM    1  C2  UNL     1     -32.896   5.273   1.678  1.00 20.00     0.003 C 
HETATM    2  C3  UNL     1     -34.174   6.112   1.698  1.00 20.00     0.007 C 
HETATM    3  C4  UNL     1     -31.690   6.099   1.235  1.00 20.00     0.034 C 
HETATM    4  C5  UNL     1     -34.102   7.267   2.714  1.00 20.00     0.023 C 
HETATM    5  C6  UNL     1     -31.607   7.417   1.937  1.00 20.00     0.151 A 
HETATM    6  C7  UNL     1     -32.800   8.015   2.636  1.00 20.00     0.155 A 
HETATM    7  O10 UNL     1     -32.416   8.439   1.325  1.00 20.00    -0.375 OA
ENDROOT
BRANCH   4   8
HETATM    8  C8  UNL     1     -34.327   6.761   4.142  1.00 20.00     0.076 C 
BRANCH   8   9
HETATM    9  C1  UNL     1     -35.376   5.684   4.207  1.00 20.00     0.231 C 
HETATM   10  O9  UNL     1     -35.196   4.548   4.633  1.00 20.00    -0.307 OA
ENDBRANCH   8   9
ENDBRANCH   4   8
TORSDOF 2
