REMARK  1 active torsions:
REMARK  status: ('A' for Active; 'I' for Inactive)
REMARK    1  A    between atoms: C4_4  and  C6_6 
ROOT
HETATM    1  C1  UNL     1     -33.781   4.389   3.012  1.00 20.00     0.280 C 
HETATM    2  C2  UNL     1     -34.498   4.891   4.259  1.00 20.00     0.104 C 
HETATM    3  C3  UNL     1     -33.660   7.353   3.408  1.00 20.00     0.109 C 
HETATM    4  C4  UNL     1     -33.033   6.576   2.246  1.00 20.00     0.229 C 
HETATM    5  N7  UNL     1     -32.634   5.220   2.643  1.00 20.00     0.089 N 
HETATM    6  S8  UNL     1     -35.177   6.555   4.009  1.00 20.00    -0.165 SA
HETATM    7  H21 UNL     1     -31.987   5.272   3.430  1.00 20.00     0.316 HD
ENDROOT
BRANCH   4   8
HETATM    8  C6  UNL     1     -31.789   7.316   1.745  1.00 20.00     0.032 C 
HETATM    9  C5  UNL     1     -32.121   8.694   1.279  1.00 20.00     0.007 C 
ENDBRANCH   4   8
TORSDOF 1
