REMARK  1 active torsions:
REMARK  status: ('A' for Active; 'I' for Inactive)
REMARK    1  A    between atoms: C1_1  and  C5_5 
ROOT
HETATM    1  C2  UNL     1     -32.255   5.714   1.812  1.00 20.00     0.022 C 
HETATM    2  C3  UNL     1     -31.609   6.758   0.884  1.00 20.00     0.011 C 
HETATM    3  C4  UNL     1     -33.890   7.388   1.285  1.00 20.00     0.031 C 
HETATM    4  C5  UNL     1     -33.286   6.616   2.496  1.00 20.00     0.057 C 
HETATM    5  C6  UNL     1     -32.444   7.996   1.278  1.00 20.00    -0.035 C 
HETATM    6  C7  UNL     1     -32.579   7.986   2.875  1.00 20.00    -0.023 C 
HETATM    7  C8  UNL     1     -32.152   9.257   0.517  1.00 20.00     0.016 C 
HETATM    8  C9  UNL     1     -31.270   7.896   3.677  1.00 20.00     0.017 C 
HETATM    9  C10 UNL     1     -33.434   9.085   3.536  1.00 20.00     0.017 C 
ENDROOT
BRANCH   4  10
HETATM   10  C1  UNL     1     -34.190   5.974   3.461  1.00 20.00     0.182 C 
HETATM   11  O11 UNL     1     -35.028   6.743   4.009  1.00 20.00    -0.647 OA
HETATM   12  O12 UNL     1     -34.007   4.734   3.614  1.00 20.00    -0.647 OA
ENDBRANCH   4  10
TORSDOF 1
