REMARK  0 active torsions:
REMARK  status: ('A' for Active; 'I' for Inactive)
ROOT
HETATM    1  C1  UNL     1     -33.186   7.833   4.152  1.00 20.00     0.147 C 
HETATM    2  C2  UNL     1     -34.136   6.984   4.976  1.00 20.00     0.085 C 
HETATM    3  C3  UNL     1     -35.599   6.991   2.950  1.00 20.00     0.008 C 
HETATM    4  C4  UNL     1     -34.585   7.875   2.188  1.00 20.00     0.030 C 
HETATM    5  C5  UNL     1     -34.691   6.093   3.833  1.00 20.00     0.002 C 
HETATM    6  C6  UNL     1     -33.242   7.350   2.711  1.00 20.00     0.086 C 
HETATM    7  C7  UNL     1     -33.458   5.837   2.918  1.00 20.00    -0.019 C 
HETATM    8  C8  UNL     1     -32.304   5.091   3.621  1.00 20.00     0.017 C 
HETATM    9  C9  UNL     1     -33.794   5.035   1.645  1.00 20.00     0.017 C 
HETATM   10  O10 UNL     1     -32.527   8.760   4.594  1.00 20.00    -0.296 OA
HETATM   11 BR11 UNL     1     -31.730   7.886   1.704  1.00 20.00    -0.076 Br
ENDROOT
TORSDOF 0
