REMARK  1 active torsions:
REMARK  status: ('A' for Active; 'I' for Inactive)
REMARK    1  A    between atoms: C3_3  and  O10_10 
ROOT
HETATM    1  C1  UNL     1     -31.630   7.963   3.116  1.00 20.00     0.041 C 
HETATM    2  C2  UNL     1     -33.723   7.084   2.161  1.00 20.00     0.020 C 
HETATM    3  C3  UNL     1     -32.569   7.501   4.225  1.00 20.00     0.126 C 
HETATM    4  C4  UNL     1     -32.235   7.377   1.824  1.00 20.00    -0.045 C 
HETATM    5  C5  UNL     1     -33.967   7.612   3.592  1.00 20.00    -0.021 C 
HETATM    6  C6  UNL     1     -31.515   6.075   1.439  1.00 20.00     0.015 C 
HETATM    7  C7  UNL     1     -32.110   8.373   0.666  1.00 20.00     0.015 C 
HETATM    8  C8  UNL     1     -34.496   9.058   3.558  1.00 20.00     0.017 C 
HETATM    9  C9  UNL     1     -34.986   6.743   4.339  1.00 20.00     0.017 C 
ENDROOT
BRANCH   3  10
HETATM   10  O10 UNL     1     -32.405   8.303   5.379  1.00 20.00    -0.395 OA
HETATM   11  H28 UNL     1     -31.479   8.210   5.663  1.00 20.00     0.210 HD
ENDBRANCH   3  10
TORSDOF 1
