REMARK  3 active torsions:
REMARK  status: ('A' for Active; 'I' for Inactive)
REMARK    1  A    between atoms: C1_1  and  C6_6 
REMARK    2  A    between atoms: C1_1  and  O8_8 
REMARK    3  A    between atoms: C4_4  and  C6_6 
ROOT
HETATM    1  C6  UNL     1     -34.019   6.774   3.369  1.00 20.00     0.115 C 
ENDROOT
BRANCH   1   2
HETATM    2  C1  UNL     1     -34.706   5.555   3.958  1.00 20.00     0.139 C 
HETATM    3  O7  UNL     1     -34.159   4.492   4.212  1.00 20.00    -0.650 OA
BRANCH   2   4
HETATM    4  O8  UNL     1     -36.025   5.794   4.173  1.00 20.00    -0.776 OA
HETATM    5  H18 UNL     1     -36.481   5.014   4.554  1.00 20.00     0.167 HD
ENDBRANCH   2   4
ENDBRANCH   1   2
BRANCH   1   6
HETATM    6  C4  UNL     1     -33.457   6.527   2.012  1.00 20.00    -0.001 A 
HETATM    7  C2  UNL     1     -32.321   7.372   1.498  1.00 20.00     0.010 A 
HETATM    8  C3  UNL     1     -32.082   5.930   1.860  1.00 20.00    -0.014 A 
HETATM    9  C5  UNL     1     -31.818   4.924   0.794  1.00 20.00     0.010 C 
ENDBRANCH   1   6
TORSDOF 3
