REMARK  1 active torsions:
REMARK  status: ('A' for Active; 'I' for Inactive)
REMARK    1  A    between atoms: C8_8  and  N10_10 
ROOT
HETATM    1  C1  UNL     1     -32.964  10.682   0.548  1.00 20.00     0.013 C 
HETATM    2  C2  UNL     1     -32.555   9.575   0.766  1.00 20.00    -0.087 C 
HETATM    3  C8  UNL     1     -32.050   8.225   1.029  1.00 20.00     0.365 C 
ENDROOT
BRANCH   3   4
HETATM    4  N10 UNL     1     -33.054   7.426   1.729  1.00 20.00     0.102 N 
HETATM    5  C5  UNL     1     -32.776   5.992   1.581  1.00 20.00     0.303 C 
HETATM    6  C3  UNL     1     -33.827   5.154   2.316  1.00 20.00     0.302 C 
HETATM    7  N9  UNL     1     -33.889   5.520   3.736  1.00 20.00     0.087 N 
HETATM    8  C4  UNL     1     -34.167   6.954   3.884  1.00 20.00     0.302 C 
HETATM    9  C7  UNL     1     -34.895   4.722   4.435  1.00 20.00     0.310 C 
HETATM   10  C6  UNL     1     -33.115   7.792   3.149  1.00 20.00     0.303 C 
ENDBRANCH   3   4
TORSDOF 1
