REMARK  3 active torsions:
REMARK  status: ('A' for Active; 'I' for Inactive)
REMARK    1  A    between atoms: C1_1  and  C4_4 
REMARK    2  A    between atoms: C2_2  and  C9_9 
REMARK    3  A    between atoms: C9_9  and  N10_10 
ROOT
HETATM    1  C5  UNL     1     -35.075   4.913   4.304  1.00 20.00     0.032 C 
HETATM    2  C6  UNL     1     -35.535   6.368   4.273  1.00 20.00     0.032 C 
HETATM    3  C7  UNL     1     -33.665   4.930   3.731  1.00 20.00     0.273 C 
HETATM    4  C8  UNL     1     -34.363   7.143   3.690  1.00 20.00     0.273 C 
HETATM    5  N10 UNL     1     -33.665   6.131   2.895  1.00 20.00     0.099 N 
ENDROOT
BRANCH   5   6
HETATM    6  C9  UNL     1     -32.293   6.558   2.597  1.00 20.00     0.366 C 
BRANCH   6   7
HETATM    7  C2  UNL     1     -32.290   7.761   1.760  1.00 20.00    -0.072 C 
HETATM    8  C1  UNL     1     -32.282   8.747   1.073  1.00 20.00    -0.078 C 
BRANCH   8   9
HETATM    9  C4  UNL     1     -32.265   9.911   0.261  1.00 20.00     0.054 C 
HETATM   10  C3  UNL     1     -33.388  10.555  -0.073  1.00 20.00     0.020 C 
ENDBRANCH   8   9
ENDBRANCH   6   7
ENDBRANCH   5   6
TORSDOF 3
