REMARK  0 active torsions:
REMARK  status: ('A' for Active; 'I' for Inactive)
ROOT
HETATM    1  C1  UNL     1     -34.661   6.449   3.903  1.00 20.00     0.124 C 
HETATM    2  C2  UNL     1     -33.146   5.647   2.229  1.00 20.00     0.021 C 
HETATM    3  C3  UNL     1     -33.620   6.670   2.960  1.00 20.00     0.145 C 
HETATM    4  C4  UNL     1     -32.012   5.810   1.265  1.00 20.00     0.033 C 
HETATM    5  C5  UNL     1     -31.322   7.157   1.452  1.00 20.00     0.031 C 
HETATM    6  C6  UNL     1     -32.363   8.239   1.703  1.00 20.00     0.176 C 
HETATM    7  N7  UNL     1     -35.510   6.269   4.673  1.00 20.00    -0.189 NA
HETATM    8  O8  UNL     1     -33.150   7.965   2.869  1.00 20.00    -0.341 OA
ENDROOT
TORSDOF 0
