REMARK  0 active torsions:
REMARK  status: ('A' for Active; 'I' for Inactive)
ROOT
HETATM    1  C1  UNL     1     -32.226   5.395   2.216  1.00 20.00     0.011 A 
HETATM    2  C2  UNL     1     -31.504   6.304   1.443  1.00 20.00     0.024 A 
HETATM    3  C3  UNL     1     -32.817   8.119   2.346  1.00 20.00     0.031 A 
HETATM    4  C4  UNL     1     -33.256   5.839   3.055  1.00 20.00    -0.024 A 
HETATM    5  C5  UNL     1     -33.541   7.214   3.134  1.00 20.00    -0.047 A 
HETATM    6  C6  UNL     1     -31.800   7.664   1.506  1.00 20.00     0.034 A 
HETATM    7  C7  UNL     1     -34.662   7.707   4.013  1.00 20.00     0.069 C 
HETATM    8  C8  UNL     1     -34.006   4.852   3.915  1.00 20.00     0.308 C 
HETATM    9  C9  UNL     1     -35.088   6.674   5.057  1.00 20.00     0.274 C 
HETATM   10  N10 UNL     1     -35.280   5.369   4.428  1.00 20.00     0.087 N 
HETATM   11 CL11 UNL     1     -30.912   8.783   0.547  1.00 20.00    -0.084 Cl
HETATM   12  H21 UNL     1     -35.941   5.461   3.656  1.00 20.00     0.316 HD
ENDROOT
TORSDOF 0
