REMARK  2 active torsions:
REMARK  status: ('A' for Active; 'I' for Inactive)
REMARK    1  A    between atoms: C2_2  and  C3_3 
REMARK    2  A    between atoms: C3_3  and  O10_10 
ROOT
HETATM    1  C1  UNL     1     -33.252   6.818   2.590  1.00 20.00    -0.067 C 
HETATM    2  C2  UNL     1     -33.886   6.791   3.767  1.00 20.00     0.014 C 
HETATM    3  C4  UNL     1     -32.396   7.955   2.108  1.00 20.00     0.035 C 
HETATM    4  C5  UNL     1     -33.300   5.717   1.569  1.00 20.00     0.035 C 
HETATM    5  C6  UNL     1     -31.685   7.360   0.898  1.00 20.00     0.005 C 
HETATM    6  C7  UNL     1     -32.695   6.370   0.332  1.00 20.00     0.005 C 
HETATM    7  C8  UNL     1     -33.809   7.917   4.754  1.00 20.00     0.056 C 
ENDROOT
BRANCH   2   8
HETATM    8  C3  UNL     1     -34.693   5.582   4.081  1.00 20.00     0.171 C 
HETATM    9  O9  UNL     1     -34.262   4.442   4.155  1.00 20.00    -0.646 OA
BRANCH   8  10
HETATM   10  O10 UNL     1     -35.991   5.910   4.279  1.00 20.00    -0.773 OA
HETATM   11  H22 UNL     1     -36.541   5.124   4.488  1.00 20.00     0.167 HD
ENDBRANCH   8  10
ENDBRANCH   2   8
TORSDOF 2
