REMARK  1 active torsions:
REMARK  status: ('A' for Active; 'I' for Inactive)
REMARK    1  A    between atoms: C5_5  and  O7_7 
ROOT
HETATM    1  C1  UNL     1     -34.289   5.169   2.587  1.00 20.00     0.037 C 
HETATM    2  C2  UNL     1     -34.431   7.378   3.808  1.00 20.00     0.037 C 
HETATM    3  C3  UNL     1     -32.903   5.541   2.069  1.00 20.00     0.081 C 
HETATM    4  C4  UNL     1     -33.046   7.755   3.293  1.00 20.00     0.081 C 
HETATM    5  C5  UNL     1     -34.598   5.861   3.914  1.00 20.00     0.118 C 
HETATM    6  C6  UNL     1     -32.728   7.048   1.985  1.00 20.00     0.243 C 
HETATM    7  F8  UNL     1     -31.456   7.335   1.614  1.00 20.00    -0.206 F 
HETATM    8  F9  UNL     1     -33.534   7.537   1.007  1.00 20.00    -0.206 F 
ENDROOT
BRANCH   5   9
HETATM    9  O7  UNL     1     -35.938   5.553   4.285  1.00 20.00    -0.396 OA
HETATM   10  H19 UNL     1     -36.104   6.005   5.128  1.00 20.00     0.210 HD
ENDBRANCH   5   9
TORSDOF 1
