REMARK  3 active torsions:
REMARK  status: ('A' for Active; 'I' for Inactive)
REMARK    1  A    between atoms: C1_1  and  C3_3 
REMARK    2  A    between atoms: C2_2  and  C5_5 
REMARK    3  A    between atoms: C4_4  and  C7_7 
ROOT
HETATM    1  C1  UNL     1     -33.486   6.698   2.643  1.00 20.00     0.000 C 
HETATM    2  C2  UNL     1     -33.347   7.875   2.015  1.00 20.00    -0.000 C 
ENDROOT
BRANCH   1   3
HETATM    3  C3  UNL     1     -34.479   6.465   3.670  1.00 20.00     0.003 C 
HETATM    4  C4  UNL     1     -34.612   5.287   4.292  1.00 20.00     0.041 C 
BRANCH   4   5
HETATM    5  C7  UNL     1     -33.714   4.176   3.922  1.00 20.00     0.258 C 
HETATM    6  O9  UNL     1     -33.387   3.312   4.727  1.00 20.00    -0.302 OA
ENDBRANCH   4   5
ENDBRANCH   1   3
BRANCH   2   7
HETATM    7  C5  UNL     1     -32.353   8.107   0.990  1.00 20.00    -0.004 C 
HETATM    8  C6  UNL     1     -32.211   9.283   0.360  1.00 20.00    -0.031 C 
HETATM    9  C8  UNL     1     -33.056  10.481   0.641  1.00 20.00     0.036 C 
ENDBRANCH   2   7
TORSDOF 3
