REMARK  3 active torsions:
REMARK  status: ('A' for Active; 'I' for Inactive)
REMARK    1  A    between atoms: C1_1  and  C3_3 
REMARK    2  A    between atoms: C2_2  and  C5_5 
REMARK    3  A    between atoms: C4_4  and  C7_7 
ROOT
HETATM    1  C1  UNL     1     -32.588   5.954   1.854  1.00 20.00     0.000 C 
HETATM    2  C2  UNL     1     -32.063   6.870   1.026  1.00 20.00    -0.000 C 
ENDROOT
BRANCH   1   3
HETATM    3  C3  UNL     1     -33.603   6.268   2.836  1.00 20.00     0.003 C 
HETATM    4  C4  UNL     1     -34.123   5.348   3.658  1.00 20.00     0.041 C 
BRANCH   4   5
HETATM    5  C7  UNL     1     -33.646   3.954   3.565  1.00 20.00     0.258 C 
HETATM    6  O9  UNL     1     -33.627   3.210   4.538  1.00 20.00    -0.302 OA
ENDBRANCH   4   5
ENDBRANCH   1   3
BRANCH   2   7
HETATM    7  C5  UNL     1     -32.460   8.261   1.036  1.00 20.00    -0.004 C 
HETATM    8  C6  UNL     1     -31.937   9.179   0.211  1.00 20.00    -0.031 C 
HETATM    9  C8  UNL     1     -32.339  10.618   0.211  1.00 20.00     0.036 C 
ENDBRANCH   2   7
TORSDOF 3
