REMARK  1 active torsions:
REMARK  status: ('A' for Active; 'I' for Inactive)
REMARK    1  A    between atoms: C2_2  and  C10_10 
ROOT
HETATM    1  C1  UNL     1     -32.392   6.194   1.656  1.00 20.00    -0.022 C 
HETATM    2  C2  UNL     1     -32.809   7.345   2.211  1.00 20.00    -0.073 C 
HETATM    3  C3  UNL     1     -34.264   6.016   3.769  1.00 20.00     0.134 C 
HETATM    4  C4  UNL     1     -32.780   4.838   2.162  1.00 20.00     0.039 C 
HETATM    5  C5  UNL     1     -33.743   7.392   3.389  1.00 20.00     0.113 C 
HETATM    6  C6  UNL     1     -33.290   4.859   3.606  1.00 20.00     0.055 C 
HETATM    7  C7  UNL     1     -33.916   3.520   3.984  1.00 20.00     0.018 C 
HETATM    8  O11 UNL     1     -35.381   5.882   4.268  1.00 20.00    -0.297 OA
ENDROOT
BRANCH   2   9
HETATM    9  C10 UNL     1     -32.375   8.678   1.673  1.00 20.00     0.006 C 
HETATM   10  C8  UNL     1     -30.861   8.819   1.776  1.00 20.00     0.014 C 
HETATM   11  C9  UNL     1     -32.844   8.857   0.233  1.00 20.00     0.014 C 
ENDBRANCH   2   9
TORSDOF 1
