REMARK  1 active torsions:
REMARK  status: ('A' for Active; 'I' for Inactive)
REMARK    1  A    between atoms: C4_4  and  O11_11 
ROOT
HETATM    1  C1  UNL     1     -32.797   9.100  -0.729  1.00 20.00    -0.021 C 
HETATM    2  C2  UNL     1     -32.872  10.294  -0.118  1.00 20.00    -0.025 C 
HETATM    3  C3  UNL     1     -32.502   7.964   1.424  1.00 20.00    -0.043 C 
HETATM    4  C4  UNL     1     -32.887   6.775   1.895  1.00 20.00     0.045 C 
HETATM    5  C5  UNL     1     -32.593   9.299   2.154  1.00 20.00     0.046 C 
HETATM    6  C6  UNL     1     -30.865   9.334   0.516  1.00 20.00     0.022 C 
HETATM    7  C7  UNL     1     -31.851   8.243   0.081  1.00 20.00     0.040 C 
HETATM    8  C8  UNL     1     -31.963  10.236   1.094  1.00 20.00     0.013 C 
HETATM    9  C9  UNL     1     -32.770   5.499   1.123  1.00 20.00     0.076 C 
ENDROOT
BRANCH   4  10
HETATM   10  O11 UNL     1     -33.431   6.671   3.161  1.00 20.00    -0.360 OA
HETATM   11  C10 UNL     1     -34.829   6.819   3.161  1.00 20.00     0.209 C 
ENDBRANCH   4  10
TORSDOF 1
