REMARK  1 active torsions:
REMARK  status: ('A' for Active; 'I' for Inactive)
REMARK    1  A    between atoms: C1_1  and  C2_2 
ROOT
HETATM    1  C1  UNL     1     -33.134   6.861   2.239  1.00 20.00     0.326 C 
HETATM    2  O3  UNL     1     -32.469   7.885   2.191  1.00 20.00    -0.257 OA
HETATM    3  F4  UNL     1     -32.961   5.971   1.252  1.00 20.00    -0.162 F 
ENDROOT
BRANCH   1   4
HETATM    4  C2  UNL     1     -34.121   6.523   3.305  1.00 20.00     0.338 C 
HETATM    5  F5  UNL     1     -34.203   7.510   4.236  1.00 20.00    -0.245 F 
ENDBRANCH   1   4
TORSDOF 1
