REMARK  0 active torsions:
REMARK  status: ('A' for Active; 'I' for Inactive)
ROOT
HETATM    1  C1  UNL     1     -32.613   5.483   1.525  1.00 20.00     0.063 C 
HETATM    2  C2  UNL     1     -32.847   7.892   1.774  1.00 20.00     0.167 C 
HETATM    3  C3  UNL     1     -34.590   6.433   3.232  1.00 20.00     0.112 C 
HETATM    4  C4  UNL     1     -31.998   4.335   0.765  1.00 20.00     0.078 C 
HETATM    5  C5  UNL     1     -31.719   8.924   1.733  1.00 20.00     0.046 C 
HETATM    6  C6  UNL     1     -35.412   6.201   4.494  1.00 20.00     0.033 C 
HETATM    7  N7  UNL     1     -32.335   6.676   1.148  1.00 20.00    -0.272 NA
HETATM    8  S8  UNL     1     -33.613   4.957   2.865  1.00 20.00    -0.100 SA
HETATM    9  S9  UNL     1     -33.502   7.856   3.468  1.00 20.00    -0.127 SA
ENDROOT
TORSDOF 0
