REMARK  0 active torsions:
REMARK  status: ('A' for Active; 'I' for Inactive)
ROOT
HETATM    1  C1  UNL     1     -33.419   7.795   3.303  1.00 20.00     0.302 C 
HETATM    2  C2  UNL     1     -34.333   6.683   3.767  1.00 20.00     0.201 C 
HETATM    3  C3  UNL     1     -33.031   5.905   2.041  1.00 20.00     0.253 C 
HETATM    4  C4  UNL     1     -33.705   5.273   0.820  1.00 20.00     0.081 C 
HETATM    5  C5  UNL     1     -31.616   5.336   2.210  1.00 20.00     0.081 C 
HETATM    6  C6  UNL     1     -32.011   8.075   1.351  1.00 20.00     0.314 C 
HETATM    7  N7  UNL     1     -33.136   7.368   1.938  1.00 20.00     0.120 N 
HETATM    8  O8  UNL     1     -33.777   5.486   3.207  1.00 20.00    -0.351 OA
ENDROOT
TORSDOF 0
