REMARK  1 active torsions:
REMARK  status: ('A' for Active; 'I' for Inactive)
REMARK    1  A    between atoms: C8_8  and  N9_9 
ROOT
HETATM    1  C1  UNL     1     -32.658  10.052   0.410  1.00 20.00     0.013 C 
HETATM    2  C2  UNL     1     -32.334   9.000   0.889  1.00 20.00    -0.087 C 
HETATM    3  C8  UNL     1     -31.933   7.718   1.474  1.00 20.00     0.364 C 
ENDROOT
BRANCH   3   4
HETATM    4  N9  UNL     1     -33.096   7.007   2.005  1.00 20.00     0.099 N 
HETATM    5  C6  UNL     1     -33.467   7.540   3.323  1.00 20.00     0.273 C 
HETATM    6  C4  UNL     1     -34.712   6.840   3.871  1.00 20.00     0.030 C 
HETATM    7  C3  UNL     1     -34.517   5.330   3.930  1.00 20.00     0.003 C 
HETATM    8  C5  UNL     1     -34.052   4.799   2.579  1.00 20.00     0.030 C 
HETATM    9  C7  UNL     1     -32.828   5.563   2.072  1.00 20.00     0.273 C 
ENDBRANCH   3   4
TORSDOF 1
