REMARK  2 active torsions:
REMARK  status: ('A' for Active; 'I' for Inactive)
REMARK    1  A    between atoms: C8_8  and  C9_9 
REMARK    2  A    between atoms: C9_9  and  N11_11 
ROOT
HETATM    1  C1  UNL     1     -33.714   4.111   4.012  1.00 20.00     0.064 C 
HETATM    2  C2  UNL     1     -34.158   4.939   1.717  1.00 20.00     0.047 C 
HETATM    3  C3  UNL     1     -34.445   6.462   3.711  1.00 20.00     0.047 C 
HETATM    4  C4  UNL     1     -32.824   5.609   1.410  1.00 20.00     0.236 C 
HETATM    5  C5  UNL     1     -33.108   7.120   3.388  1.00 20.00     0.236 C 
HETATM    6  C6  UNL     1     -34.544   5.020   3.199  1.00 20.00     0.096 C 
HETATM    7  N10 UNL     1     -33.062   3.396   4.652  1.00 20.00    -0.197 NA
HETATM    8  N11 UNL     1     -32.851   7.034   1.904  1.00 20.00    -0.071 N 
HETATM    9  H28 UNL     1     -33.633   7.507   1.430  1.00 20.00     0.279 HD
ENDROOT
BRANCH   8  10
HETATM   10  C9  UNL     1     -31.605   7.780   1.513  1.00 20.00     0.234 C 
BRANCH  10  11
HETATM   11  C8  UNL     1     -31.740   8.257   0.076  1.00 20.00     0.023 C 
HETATM   12  C7  UNL     1     -32.908   9.218  -0.077  1.00 20.00     0.007 C 
ENDBRANCH  10  11
ENDBRANCH   8  10
TORSDOF 2
