REMARK  1 active torsions:
REMARK  status: ('A' for Active; 'I' for Inactive)
REMARK    1  A    between atoms: C9_9  and  N11_11 
ROOT
HETATM    1  C1  UNL     1     -32.842   5.907   1.817  1.00 20.00     0.102 C 
HETATM    2  C2  UNL     1     -34.244   6.608   4.416  1.00 20.00     0.007 C 
HETATM    3  C5  UNL     1     -34.627   7.251   3.063  1.00 20.00     0.058 C 
HETATM    4  C6  UNL     1     -32.779   7.006   4.123  1.00 20.00     0.058 C 
HETATM    5  C9  UNL     1     -33.158   7.056   2.626  1.00 20.00     0.246 C 
HETATM    6  N10 UNL     1     -32.587   4.981   1.165  1.00 20.00    -0.194 NA
ENDROOT
BRANCH   5   7
HETATM    7  N11 UNL     1     -32.653   8.302   2.038  1.00 20.00     0.112 N 
HETATM    8  C7  UNL     1     -31.197   8.256   1.893  1.00 20.00     0.275 C 
HETATM    9  C3  UNL     1     -30.920   9.364   0.888  1.00 20.00     0.032 C 
HETATM   10  C4  UNL     1     -32.213   9.513   0.091  1.00 20.00     0.032 C 
HETATM   11  C8  UNL     1     -33.162   8.479   0.677  1.00 20.00     0.275 C 
ENDBRANCH   5   7
TORSDOF 1
