REMARK  0 active torsions:
REMARK  status: ('A' for Active; 'I' for Inactive)
ROOT
HETATM    1  C1  UNL     1     -33.622   5.539   3.052  1.00 20.00     0.048 C 
HETATM    2  C2  UNL     1     -34.643   6.051   4.046  1.00 20.00     0.169 C 
HETATM    3  C3  UNL     1     -33.201   7.805   3.515  1.00 20.00     0.187 C 
HETATM    4  C4  UNL     1     -33.211   6.819   2.364  1.00 20.00     0.108 C 
HETATM    5  O5  UNL     1     -34.216   7.366   4.433  1.00 20.00    -0.390 OA
HETATM    6 CL6  UNL     1     -31.647   6.690   1.554  1.00 20.00    -0.123 Cl
ENDROOT
TORSDOF 0
