REMARK  0 active torsions:
REMARK  status: ('A' for Active; 'I' for Inactive)
ROOT
HETATM    1  C1  UNL     1     -34.909   6.794   4.233  1.00 20.00     0.166 A 
HETATM    2  C2  UNL     1     -33.187   7.445   3.109  1.00 20.00     0.048 A 
HETATM    3  C3  UNL     1     -33.404   6.245   2.493  1.00 20.00     0.008 A 
HETATM    4  C4  UNL     1     -32.027   8.160   2.544  1.00 20.00     0.061 C 
HETATM    5  C5  UNL     1     -32.443   5.939   1.416  1.00 20.00     0.048 C 
HETATM    6  C6  UNL     1     -31.753   7.335   1.240  1.00 20.00     0.011 C 
HETATM    7  N7  UNL     1     -34.040   7.786   4.115  1.00 20.00    -0.257 NA
HETATM    8  S8  UNL     1     -34.718   5.446   3.148  1.00 20.00    -0.085 SA
ENDROOT
TORSDOF 0
