REMARK  2 active torsions:
REMARK  status: ('A' for Active; 'I' for Inactive)
REMARK    1  A    between atoms: C2_2  and  C5_5 
REMARK    2  A    between atoms: C5_5  and  C6_6 
ROOT
HETATM    1  C1  UNL     1     -33.193   7.364   2.751  1.00 20.00     0.223 C 
HETATM    2  C2  UNL     1     -32.486   7.043   1.702  1.00 20.00    -0.030 C 
HETATM    3  C3  UNL     1     -32.195   5.613   1.345  1.00 20.00     0.048 C 
HETATM    4  O7  UNL     1     -33.830   7.654   3.696  1.00 20.00    -0.284 OA
ENDROOT
BRANCH   2   5
HETATM    5  C5  UNL     1     -31.908   8.090   0.777  1.00 20.00     0.037 C 
BRANCH   5   6
HETATM    6  C6  UNL     1     -32.746   9.371   0.760  1.00 20.00    -0.000 C 
HETATM    7  C4  UNL     1     -32.135  10.421  -0.155  1.00 20.00     0.005 C 
ENDBRANCH   5   6
ENDBRANCH   2   5
TORSDOF 2
