REMARK  3 active torsions:
REMARK  status: ('A' for Active; 'I' for Inactive)
REMARK    1  A    between atoms: C1_1  and  C6_6 
REMARK    2  A    between atoms: C1_1  and  O9_9 
REMARK    3  A    between atoms: C6_6  and  C7_7 
ROOT
HETATM    1  C2  UNL     1     -31.673   6.834   0.975  1.00 20.00     0.021 C 
HETATM    2  C6  UNL     1     -32.369   7.745   1.990  1.00 20.00     0.085 C 
ENDROOT
BRANCH   2   3
HETATM    3  C1  UNL     1     -33.396   6.938   2.772  1.00 20.00     0.262 C 
HETATM    4  O8  UNL     1     -33.685   5.771   2.541  1.00 20.00    -0.265 OA
BRANCH   3   5
HETATM    5  O9  UNL     1     -33.930   7.710   3.763  1.00 20.00    -0.326 OA
HETATM    6  C5  UNL     1     -34.910   7.068   4.585  1.00 20.00     0.213 C 
ENDBRANCH   3   5
ENDBRANCH   2   3
BRANCH   2   7
HETATM    7  C7  UNL     1     -32.973   9.009   1.333  1.00 20.00    -0.010 C 
HETATM    8  C3  UNL     1     -32.163   9.549   0.151  1.00 20.00     0.010 C 
HETATM    9  C4  UNL     1     -33.199  10.126   2.358  1.00 20.00     0.010 C 
ENDBRANCH   2   7
TORSDOF 3
