REMARK  1 active torsions:
REMARK  status: ('A' for Active; 'I' for Inactive)
REMARK    1  A    between atoms: C3_3  and  C8_8 
ROOT
HETATM    1  C1  UNL     1     -33.448   6.934   2.911  1.00 20.00     0.017 C 
HETATM    2  C2  UNL     1     -33.232   5.677   2.082  1.00 20.00     0.092 C 
HETATM    3  C3  UNL     1     -31.846   7.805   1.562  1.00 20.00     0.173 C 
HETATM    4  C4  UNL     1     -34.466   6.909   4.016  1.00 20.00     0.066 C 
HETATM    5  C5  UNL     1     -34.444   5.367   1.220  1.00 20.00     0.028 C 
HETATM    6  N9  UNL     1     -32.794   8.029   2.666  1.00 20.00    -0.282 NA
HETATM    7  S10 UNL     1     -31.805   6.070   1.049  1.00 20.00    -0.131 SA
ENDROOT
BRANCH   3   8
HETATM    8  C8  UNL     1     -32.247   8.691   0.390  1.00 20.00     0.012 C 
HETATM    9  C6  UNL     1     -32.254  10.163   0.802  1.00 20.00     0.012 C 
HETATM   10  C7  UNL     1     -31.310   8.473  -0.798  1.00 20.00     0.012 C 
ENDBRANCH   3   8
TORSDOF 1
