REMARK  1 active torsions:
REMARK  status: ('A' for Active; 'I' for Inactive)
REMARK    1  A    between atoms: C3_3  and  C8_8 
ROOT
HETATM    1  C1  UNL     1     -33.495   7.408   3.577  1.00 20.00     0.017 C 
HETATM    2  C2  UNL     1     -34.138   6.189   2.937  1.00 20.00     0.092 C 
HETATM    3  C3  UNL     1     -31.964   7.169   1.922  1.00 20.00     0.173 C 
HETATM    4  C4  UNL     1     -34.143   8.019   4.787  1.00 20.00     0.066 C 
HETATM    5  C5  UNL     1     -34.048   4.973   3.845  1.00 20.00     0.028 C 
HETATM    6  N9  UNL     1     -32.395   7.918   3.114  1.00 20.00    -0.282 NA
HETATM    7  S10 UNL     1     -33.178   5.921   1.431  1.00 20.00    -0.131 SA
ENDROOT
BRANCH   3   8
HETATM    8  C8  UNL     1     -31.741   8.156   0.785  1.00 20.00     0.012 C 
HETATM    9  C6  UNL     1     -33.039   8.886   0.438  1.00 20.00     0.012 C 
HETATM   10  C7  UNL     1     -30.645   9.159   1.144  1.00 20.00     0.012 C 
ENDBRANCH   3   8
TORSDOF 1
