REMARK  1 active torsions:
REMARK  status: ('A' for Active; 'I' for Inactive)
REMARK    1  A    between atoms: C3_3  and  C4_4 
ROOT
HETATM    1  C1  UNL     1     -32.843   5.312   1.373  1.00 20.00    -0.018 A 
HETATM    2  C2  UNL     1     -31.578   5.752   1.268  1.00 20.00    -0.024 A 
HETATM    3  C4  UNL     1     -33.719   6.425   1.893  1.00 20.00     0.082 A 
HETATM    4  C5  UNL     1     -31.391   7.147   1.700  1.00 20.00     0.022 A 
HETATM    5  C6  UNL     1     -32.785   7.604   2.111  1.00 20.00     0.017 A 
HETATM    6  C7  UNL     1     -32.039   8.323   0.998  1.00 20.00    -0.035 A 
HETATM    7  C9  UNL     1     -31.490   9.692   1.322  1.00 20.00     0.016 C 
HETATM    8  C10 UNL     1     -32.505   8.202  -0.432  1.00 20.00     0.016 C 
ENDROOT
BRANCH   3   9
HETATM    9  C3  UNL     1     -34.331   5.935   3.164  1.00 20.00     0.131 C 
HETATM   10  C8  UNL     1     -35.249   6.885   3.884  1.00 20.00     0.091 C 
HETATM   11  O11 UNL     1     -34.098   4.808   3.600  1.00 20.00    -0.298 OA
ENDBRANCH   3   9
TORSDOF 1
