REMARK  0 active torsions:
REMARK  status: ('A' for Active; 'I' for Inactive)
ROOT
HETATM    1  C1  UNL     1     -32.953   5.463   1.937  1.00 20.00     0.085 C 
HETATM    2  C2  UNL     1     -34.031   4.614   3.884  1.00 20.00     0.085 C 
HETATM    3  C3  UNL     1     -34.864   6.817   2.885  1.00 20.00     0.030 A 
HETATM    4  C4  UNL     1     -33.775   5.774   3.077  1.00 20.00     0.148 A 
HETATM    5  C5  UNL     1     -33.655   7.155   3.741  1.00 20.00    -0.007 A 
HETATM    6  C6  UNL     1     -36.237   6.670   3.453  1.00 20.00     0.014 C 
HETATM    7  C7  UNL     1     -32.688   8.174   3.176  1.00 20.00     0.018 C 
HETATM    8  C8  UNL     1     -33.803   7.282   5.242  1.00 20.00     0.018 C 
HETATM    9  N9  UNL     1     -32.290   5.212   1.019  1.00 20.00    -0.195 NA
HETATM   10  N10 UNL     1     -34.239   3.677   4.536  1.00 20.00    -0.195 NA
ENDROOT
TORSDOF 0
