REMARK  2 active torsions:
REMARK  status: ('A' for Active; 'I' for Inactive)
REMARK    1  A    between atoms: C3_3  and  C10_10 
REMARK    2  A    between atoms: C7_7  and  C10_10 
ROOT
HETATM    1  C1  UNL     1     -33.218   5.472   2.590  1.00 20.00    -0.024 C 
HETATM    2  C2  UNL     1     -34.006   5.918   3.583  1.00 20.00    -0.087 C 
HETATM    3  C4  UNL     1     -32.529   6.372   1.605  1.00 20.00     0.032 C 
HETATM    4  C5  UNL     1     -34.242   7.389   3.814  1.00 20.00     0.034 C 
HETATM    5  C6  UNL     1     -33.278   8.297   3.045  1.00 20.00     0.010 C 
HETATM    6  C7  UNL     1     -33.083   7.806   1.607  1.00 20.00    -0.001 C 
HETATM    7  C8  UNL     1     -34.704   4.980   4.523  1.00 20.00     0.043 C 
ENDROOT
BRANCH   6   8
HETATM    8  C10 UNL     1     -32.164   8.741   0.824  1.00 20.00     0.047 C 
HETATM    9  C9  UNL     1     -30.941   9.118   1.649  1.00 20.00     0.017 C 
BRANCH   8  10
HETATM   10  C3  UNL     1     -32.954   9.962   0.394  1.00 20.00     0.235 C 
HETATM   11  O11 UNL     1     -32.660  11.118   0.680  1.00 20.00    -0.306 OA
ENDBRANCH   8  10
ENDBRANCH   6   8
TORSDOF 2
