REMARK  2 active torsions:
REMARK  status: ('A' for Active; 'I' for Inactive)
REMARK    1  A    between atoms: C2_2  and  C5_5 
REMARK    2  A    between atoms: C5_5  and  C6_6 
ROOT
HETATM    1  C1  UNL     1     -32.960   8.233   1.062  1.00 20.00     0.206 A 
HETATM    2  C2  UNL     1     -32.736   7.149   2.089  1.00 20.00     0.079 A 
HETATM    3  C3  UNL     1     -32.924   5.718   1.702  1.00 20.00     0.048 C 
HETATM    4  O7  UNL     1     -31.642   7.790   1.418  1.00 20.00    -0.375 OA
ENDROOT
BRANCH   2   5
HETATM    5  C5  UNL     1     -32.830   7.487   3.568  1.00 20.00     0.039 C 
BRANCH   5   6
HETATM    6  C6  UNL     1     -34.275   7.444   4.060  1.00 20.00    -0.002 C 
HETATM    7  C4  UNL     1     -34.897   6.073   3.844  1.00 20.00     0.005 C 
ENDBRANCH   5   6
ENDBRANCH   2   5
TORSDOF 2
