REMARK  2 active torsions:
REMARK  status: ('A' for Active; 'I' for Inactive)
REMARK    1  A    between atoms: C2_2  and  C5_5 
REMARK    2  A    between atoms: C5_5  and  C6_6 
ROOT
HETATM    1  C1  UNL     1     -31.784   5.971   1.935  1.00 20.00     0.206 A 
HETATM    2  C2  UNL     1     -32.870   7.011   2.071  1.00 20.00     0.079 A 
HETATM    3  C3  UNL     1     -33.151   7.612   3.410  1.00 20.00     0.048 C 
HETATM    4  O7  UNL     1     -33.172   5.611   1.991  1.00 20.00    -0.375 OA
ENDROOT
BRANCH   2   5
HETATM    5  C5  UNL     1     -33.306   7.802   0.849  1.00 20.00     0.039 C 
BRANCH   5   6
HETATM    6  C6  UNL     1     -32.396   9.005   0.607  1.00 20.00    -0.002 C 
HETATM    7  C4  UNL     1     -32.816   9.781  -0.632  1.00 20.00     0.005 C 
ENDBRANCH   5   6
ENDBRANCH   2   5
TORSDOF 2
