REMARK  3 active torsions:
REMARK  status: ('A' for Active; 'I' for Inactive)
REMARK    1  A    between atoms: C2_2  and  C5_5 
REMARK    2  A    between atoms: C5_5  and  C6_6 
REMARK    3  A    between atoms: C6_6  and  C7_7 
ROOT
HETATM    1  C5  UNL     1     -32.107   7.815   1.380  1.00 20.00     0.034 C 
ENDROOT
BRANCH   1   2
HETATM    2  C2  UNL     1     -33.113   8.800   0.805  1.00 20.00     0.145 A 
HETATM    3  C1  UNL     1     -32.851  10.280   0.822  1.00 20.00     0.200 A 
HETATM    4  O8  UNL     1     -32.666   9.493  -0.365  1.00 20.00    -0.381 OA
ENDBRANCH   1   2
BRANCH   1   5
HETATM    5  C6  UNL     1     -32.807   6.646   2.077  1.00 20.00     0.006 C 
BRANCH   5   6
HETATM    6  C7  UNL     1     -33.650   7.073   3.293  1.00 20.00    -0.023 C 
HETATM    7  C3  UNL     1     -32.754   7.751   4.333  1.00 20.00     0.009 C 
HETATM    8  C4  UNL     1     -34.386   5.897   3.936  1.00 20.00     0.009 C 
ENDBRANCH   5   6
ENDBRANCH   1   5
TORSDOF 3
