REMARK  1 active torsions:
REMARK  status: ('A' for Active; 'I' for Inactive)
REMARK    1  A    between atoms: C5_5  and  N10_10 
ROOT
HETATM    1  C1  UNL     1     -32.178   5.540   1.491  1.00 20.00    -0.026 C 
HETATM    2  C2  UNL     1     -33.617   7.470   4.151  1.00 20.00    -0.026 C 
HETATM    3  C3  UNL     1     -31.403   6.508   2.009  1.00 20.00    -0.005 C 
HETATM    4  C4  UNL     1     -34.471   7.021   3.215  1.00 20.00    -0.005 C 
HETATM    5  C6  UNL     1     -33.645   5.746   1.196  1.00 20.00     0.056 C 
HETATM    6  C7  UNL     1     -32.269   8.057   3.807  1.00 20.00     0.056 C 
HETATM    7  C8  UNL     1     -31.920   7.899   2.315  1.00 20.00     0.113 C 
HETATM    8  C9  UNL     1     -34.172   7.091   1.731  1.00 20.00     0.113 C 
HETATM    9  N10 UNL     1     -33.138   8.111   1.526  1.00 20.00    -0.343 N 
ENDROOT
BRANCH   9  10
HETATM   10  C5  UNL     1     -33.302   9.185   0.674  1.00 20.00     0.352 C 
HETATM   11  O11 UNL     1     -32.500  10.085   0.450  1.00 20.00    -0.283 OA
ENDBRANCH   9  10
TORSDOF 1
