REMARK  2 active torsions:
REMARK  status: ('A' for Active; 'I' for Inactive)
REMARK    1  A    between atoms: C3_3  and  C8_8 
REMARK    2  A    between atoms: C4_4  and  O9_9 
ROOT
HETATM    1  C1  UNL     1     -33.655   6.869   4.262  1.00 20.00     0.037 C 
HETATM    2  C2  UNL     1     -35.184   7.061   2.786  1.00 20.00     0.037 C 
HETATM    3  C3  UNL     1     -33.868   7.826   3.065  1.00 20.00    -0.002 C 
HETATM    4  C4  UNL     1     -35.185   6.646   4.277  1.00 20.00     0.118 C 
ENDROOT
BRANCH   3   5
HETATM    5  C8  UNL     1     -32.819   7.790   1.973  1.00 20.00    -0.048 C 
HETATM    6  C5  UNL     1     -31.507   8.385   2.503  1.00 20.00     0.015 C 
HETATM    7  C6  UNL     1     -33.304   8.611   0.769  1.00 20.00     0.015 C 
HETATM    8  C7  UNL     1     -32.582   6.336   1.539  1.00 20.00     0.015 C 
ENDBRANCH   3   5
BRANCH   4   9
HETATM    9  O9  UNL     1     -35.621   5.306   4.560  1.00 20.00    -0.396 OA
HETATM   10  H25 UNL     1     -36.586   5.331   4.533  1.00 20.00     0.210 HD
ENDBRANCH   4   9
TORSDOF 2
