REMARK  3 active torsions:
REMARK  status: ('A' for Active; 'I' for Inactive)
REMARK    1  A    between atoms: C4_4  and  C6_6 
REMARK    2  A    between atoms: C6_6  and  C8_8 
REMARK    3  A    between atoms: C7_7  and  C8_8 
ROOT
HETATM    1  C1  UNL     1     -34.623   6.138   3.991  1.00 20.00     0.011 C 
HETATM    2  C2  UNL     1     -33.595   7.260   3.970  1.00 20.00     0.016 C 
HETATM    3  C3  UNL     1     -34.021   4.990   3.200  1.00 20.00     0.074 C 
HETATM    4  C4  UNL     1     -33.207   7.461   2.508  1.00 20.00     0.047 C 
HETATM    5  S9  UNL     1     -33.155   5.777   1.813  1.00 20.00    -0.164 SA
ENDROOT
BRANCH   4   6
HETATM    6  C6  UNL     1     -31.876   8.174   2.345  1.00 20.00     0.015 C 
BRANCH   6   7
HETATM    7  C8  UNL     1     -31.498   8.325   0.872  1.00 20.00     0.001 C 
BRANCH   7   8
HETATM    8  C7  UNL     1     -32.530   9.163   0.117  1.00 20.00    -0.005 C 
HETATM    9  C5  UNL     1     -32.674  10.549   0.725  1.00 20.00     0.005 C 
ENDBRANCH   7   8
ENDBRANCH   6   7
ENDBRANCH   4   6
TORSDOF 3
