REMARK  5 active torsions:
REMARK  status: ('A' for Active; 'I' for Inactive)
REMARK    1  A    between atoms: C1_1  and  C9_9 
REMARK    2  A    between atoms: C1_1  and  O11_11 
REMARK    3  A    between atoms: C6_6  and  C7_7 
REMARK    4  A    between atoms: C7_7  and  C9_9 
REMARK    5  A    between atoms: C8_8  and  O11_11 
ROOT
HETATM    1  C4  UNL     1     -34.576   7.733   4.513  1.00 20.00     0.025 C 
HETATM    2  C5  UNL     1     -35.909   6.076   3.214  1.00 20.00     0.025 C 
HETATM    3  C9  UNL     1     -34.500   6.406   3.736  1.00 20.00     0.041 C 
ENDROOT
BRANCH   3   4
HETATM    4  C1  UNL     1     -33.547   6.601   2.549  1.00 20.00     0.266 C 
HETATM    5  O10 UNL     1     -33.270   5.729   1.734  1.00 20.00    -0.264 OA
BRANCH   4   6
HETATM    6  O11 UNL     1     -33.060   7.878   2.529  1.00 20.00    -0.321 OA
BRANCH   6   7
HETATM    7  C8  UNL     1     -31.754   8.035   1.965  1.00 20.00     0.174 C 
HETATM    8  C3  UNL     1     -31.886   8.290   0.479  1.00 20.00     0.034 C 
ENDBRANCH   6   7
ENDBRANCH   4   6
ENDBRANCH   3   4
BRANCH   3   9
HETATM    9  C7  UNL     1     -33.986   5.290   4.681  1.00 20.00     0.018 C 
BRANCH   9  10
HETATM   10  C6  UNL     1     -33.793   3.921   4.017  1.00 20.00    -0.003 C 
HETATM   11  C2  UNL     1     -33.234   2.905   5.002  1.00 20.00     0.005 C 
ENDBRANCH   9  10
ENDBRANCH   3   9
TORSDOF 5
