REMARK  2 active torsions:
REMARK  status: ('A' for Active; 'I' for Inactive)
REMARK    1  A    between atoms: C1_1  and  C8_8 
REMARK    2  A    between atoms: C9_9  and  N10_10 
ROOT
HETATM    1  C1  UNL     1     -33.041   8.110   1.118  1.00 20.00     0.092 C 
HETATM    2  N10 UNL     1     -32.274   7.134   1.465  1.00 20.00    -0.295 NA
ENDROOT
BRANCH   1   3
HETATM    3  C8  UNL     1     -32.494   9.463   0.682  1.00 20.00    -0.018 C 
HETATM    4  C2  UNL     1     -33.040  10.518   1.651  1.00 20.00     0.020 C 
HETATM    5  C3  UNL     1     -30.965   9.400   0.786  1.00 20.00     0.020 C 
HETATM    6  C4  UNL     1     -32.901   9.818  -0.752  1.00 20.00     0.020 C 
ENDBRANCH   1   3
BRANCH   2   7
HETATM    7  C9  UNL     1     -33.015   5.935   1.846  1.00 20.00     0.042 C 
HETATM    8  C5  UNL     1     -33.852   5.484   0.650  1.00 20.00     0.039 C 
HETATM    9  C6  UNL     1     -31.999   4.858   2.228  1.00 20.00     0.039 C 
HETATM   10  C7  UNL     1     -33.909   6.278   3.037  1.00 20.00     0.039 C 
ENDBRANCH   2   7
TORSDOF 2
