REMARK  3 active torsions:
REMARK  status: ('A' for Active; 'I' for Inactive)
REMARK    1  A    between atoms: C1_1  and  C3_3 
REMARK    2  A    between atoms: C2_2  and  C7_7 
REMARK    3  A    between atoms: C3_3  and  O9_9 
ROOT
HETATM    1  C1  UNL     1     -31.871   8.123   2.519  1.00 20.00     0.078 C 
HETATM    2  C2  UNL     1     -31.582   8.882   1.454  1.00 20.00    -0.017 C 
ENDROOT
BRANCH   1   3
HETATM    3  C3  UNL     1     -33.022   7.195   2.476  1.00 20.00     0.282 C 
HETATM    4  O8  UNL     1     -33.159   6.275   1.685  1.00 20.00    -0.260 OA
BRANCH   3   5
HETATM    5  O9  UNL     1     -33.881   7.558   3.466  1.00 20.00    -0.323 OA
HETATM    6  C6  UNL     1     -35.066   6.763   3.575  1.00 20.00     0.213 C 
ENDBRANCH   3   5
ENDBRANCH   1   3
BRANCH   2   7
HETATM    7  C7  UNL     1     -32.381   8.849   0.174  1.00 20.00    -0.000 C 
HETATM    8  C4  UNL     1     -32.990  10.224  -0.103  1.00 20.00     0.013 C 
HETATM    9  C5  UNL     1     -31.494   8.409  -0.991  1.00 20.00     0.013 C 
ENDBRANCH   2   7
TORSDOF 3
