REMARK  1 active torsions:
REMARK  status: ('A' for Active; 'I' for Inactive)
REMARK    1  A    between atoms: C3_3  and  C6_6 
ROOT
HETATM    1  C1  UNL     1     -34.464   6.959   3.633  1.00 20.00     0.282 C 
HETATM    2  C2  UNL     1     -33.825   7.883   4.657  1.00 20.00     0.106 C 
HETATM    3  C3  UNL     1     -32.678   7.754   2.279  1.00 20.00     0.201 C 
HETATM    4  C4  UNL     1     -31.223   7.364   2.017  1.00 20.00     0.061 C 
HETATM    5  N7  UNL     1     -33.421   6.554   2.690  1.00 20.00     0.103 N 
HETATM    6  S8  UNL     1     -32.749   8.944   3.669  1.00 20.00    -0.127 SA
HETATM    7  H21 UNL     1     -32.786   5.923   3.180  1.00 20.00     0.318 HD
ENDROOT
BRANCH   3   8
HETATM    8  C6  UNL     1     -33.296   8.394   1.032  1.00 20.00     0.048 C 
HETATM    9  C5  UNL     1     -32.558   9.625   0.625  1.00 20.00     0.009 C 
ENDBRANCH   3   8
TORSDOF 1
