REMARK  0 active torsions:
REMARK  status: ('A' for Active; 'I' for Inactive)
ROOT
HETATM    1  C1  UNL     1     -32.801   8.230   2.477  1.00 20.00     0.003 C 
HETATM    2  C2  UNL     1     -32.317   6.924   1.850  1.00 20.00     0.003 C 
HETATM    3  C3  UNL     1     -33.461   7.782   3.783  1.00 20.00     0.040 C 
HETATM    4  C4  UNL     1     -33.449   5.936   2.144  1.00 20.00     0.040 C 
HETATM    5  C5  UNL     1     -34.632   5.519   4.469  1.00 20.00     0.207 A 
HETATM    6  C6  UNL     1     -34.006   6.429   3.445  1.00 20.00     0.082 A 
HETATM    7  O7  UNL     1     -35.429   6.302   3.571  1.00 20.00    -0.375 OA
ENDROOT
TORSDOF 0
