REMARK  1 active torsions:
REMARK  status: ('A' for Active; 'I' for Inactive)
REMARK    1  A    between atoms: C2_2  and  C4_4 
ROOT
HETATM    1  C1  UNL     1     -33.846   6.641   3.788  1.00 20.00     0.236 A 
HETATM    2  C2  UNL     1     -32.688   7.283   2.079  1.00 20.00     0.199 A 
HETATM    3  C3  UNL     1     -33.024   5.955   1.910  1.00 20.00     0.245 A 
HETATM    4  N5  UNL     1     -33.206   7.702   3.254  1.00 20.00    -0.233 NA
HETATM    5  N6  UNL     1     -33.746   5.563   2.981  1.00 20.00    -0.212 NA
HETATM    6  F7  UNL     1     -32.696   5.185   0.873  1.00 20.00    -0.182 F 
ENDROOT
BRANCH   2   7
HETATM    7  C4  UNL     1     -31.917   8.188   1.218  1.00 20.00     0.439 C 
HETATM    8  F8  UNL     1     -31.456   7.616   0.055  1.00 20.00    -0.164 F 
HETATM    9  F9  UNL     1     -32.610   9.298   0.793  1.00 20.00    -0.164 F 
HETATM   10  F10 UNL     1     -30.792   8.694   1.823  1.00 20.00    -0.164 F 
ENDBRANCH   2   7
TORSDOF 1
