REMARK  1 active torsions:
REMARK  status: ('A' for Active; 'I' for Inactive)
REMARK    1  A    between atoms: C5_5  and  O12_12 
ROOT
HETATM    1  C1  UNL     1     -33.029   8.430   1.776  1.00 20.00     0.006 C 
HETATM    2  C2  UNL     1     -31.913   7.384   1.670  1.00 20.00     0.012 C 
HETATM    3  C3  UNL     1     -33.999   6.406   1.054  1.00 20.00     0.017 C 
HETATM    4  C4  UNL     1     -34.286   7.574   2.010  1.00 20.00    -0.003 C 
HETATM    5  C5  UNL     1     -33.134   5.814   3.215  1.00 20.00     0.137 C 
HETATM    6  C6  UNL     1     -32.680   6.042   1.744  1.00 20.00    -0.017 C 
HETATM    7  C7  UNL     1     -34.266   6.875   3.408  1.00 20.00    -0.017 C 
HETATM    8  C8  UNL     1     -31.931   4.885   1.111  1.00 20.00     0.018 C 
HETATM    9  C9  UNL     1     -33.932   7.829   4.565  1.00 20.00     0.018 C 
HETATM   10  C10 UNL     1     -35.651   6.262   3.704  1.00 20.00     0.018 C 
ENDROOT
BRANCH   5  11
HETATM   11  O12 UNL     1     -33.602   4.484   3.392  1.00 20.00    -0.389 OA
HETATM   12  C11 UNL     1     -33.589   4.104   4.761  1.00 20.00     0.202 C 
ENDBRANCH   5  11
TORSDOF 1
