REMARK  3 active torsions:
REMARK  status: ('A' for Active; 'I' for Inactive)
REMARK    1  A    between atoms: C2_2  and  C6_6 
REMARK    2  A    between atoms: C2_2  and  O9_9 
REMARK    3  A    between atoms: C5_5  and  C6_6 
ROOT
HETATM    1  C1  UNL     1     -34.688   6.267   3.810  1.00 20.00     0.074 C 
HETATM    2  C6  UNL     1     -33.802   7.353   3.349  1.00 20.00     0.192 C 
HETATM    3  N7  UNL     1     -35.388   5.416   4.172  1.00 20.00    -0.196 NA
ENDROOT
BRANCH   2   4
HETATM    4  C2  UNL     1     -32.977   6.921   2.148  1.00 20.00     0.276 C 
HETATM    5  O8  UNL     1     -32.983   5.799   1.658  1.00 20.00    -0.264 OA
BRANCH   4   6
HETATM    6  O9  UNL     1     -32.223   7.974   1.710  1.00 20.00    -0.325 OA
HETATM    7  C4  UNL     1     -31.381   7.705   0.585  1.00 20.00     0.213 C 
ENDBRANCH   4   6
ENDBRANCH   2   4
BRANCH   2   8
HETATM    8  C5  UNL     1     -32.912   7.874   4.488  1.00 20.00     0.025 C 
HETATM    9  C3  UNL     1     -32.008   9.040   4.101  1.00 20.00     0.007 C 
ENDBRANCH   2   8
TORSDOF 3
