REMARK  0 active torsions:
REMARK  status: ('A' for Active; 'I' for Inactive)
ROOT
HETATM    1  C1  UNL     1     -33.363   7.848   3.777  1.00 20.00     0.139 C 
HETATM    2  C2  UNL     1     -32.509   7.684   2.502  1.00 20.00     0.057 C 
HETATM    3  C3  UNL     1     -33.419   6.465   2.139  1.00 20.00     0.007 C 
HETATM    4  C4  UNL     1     -34.004   6.436   3.606  1.00 20.00     0.018 C 
HETATM    5  C5  UNL     1     -32.542   8.849   1.533  1.00 20.00     0.018 C 
HETATM    6  C6  UNL     1     -32.691   5.240   1.607  1.00 20.00     0.012 C 
HETATM    7  C7  UNL     1     -33.431   5.407   4.578  1.00 20.00     0.023 C 
HETATM    8  C8  UNL     1     -35.531   6.448   3.642  1.00 20.00     0.023 C 
HETATM    9  O9  UNL     1     -33.478   8.732   4.600  1.00 20.00    -0.297 OA
ENDROOT
TORSDOF 0
