REMARK  0 active torsions:
REMARK  status: ('A' for Active; 'I' for Inactive)
ROOT
HETATM    1  C1  UNL     1     -33.675   7.200   3.175  1.00 20.00     0.094 C 
HETATM    2  C2  UNL     1     -32.258  10.585   0.484  1.00 20.00     0.003 C 
HETATM    3  C3  UNL     1     -32.486   9.707  -0.743  1.00 20.00     0.003 C 
HETATM    4  C4  UNL     1     -32.798   9.738   1.638  1.00 20.00     0.042 C 
HETATM    5  C5  UNL     1     -32.136   8.300  -0.254  1.00 20.00     0.042 C 
HETATM    6  C6  UNL     1     -32.940   7.093   1.954  1.00 20.00     0.263 A 
HETATM    7  C7  UNL     1     -32.509   8.332   1.200  1.00 20.00     0.101 A 
HETATM    8  N8  UNL     1     -34.272   7.287   4.166  1.00 20.00    -0.194 NA
HETATM    9  O9  UNL     1     -31.608   7.614   2.055  1.00 20.00    -0.354 OA
ENDROOT
TORSDOF 0
