REMARK  2 active torsions:
REMARK  status: ('A' for Active; 'I' for Inactive)
REMARK    1  A    between atoms: C3_3  and  C8_8 
REMARK       I    between atoms: C3_3  and  N10_10 
REMARK    2  A    between atoms: C9_9  and  N10_10 
ROOT
HETATM    1  C1  UNL     1     -32.744  11.261   0.661  1.00 20.00     0.015 C 
HETATM    2  C2  UNL     1     -32.556  10.078   0.738  1.00 20.00    -0.086 C 
HETATM    3  C6  UNL     1     -32.691   7.957  -0.499  1.00 20.00     0.052 C 
HETATM    4  C7  UNL     1     -30.853   8.351   1.162  1.00 20.00     0.052 C 
HETATM    5  C9  UNL     1     -32.324   8.622   0.833  1.00 20.00     0.088 C 
ENDROOT
BRANCH   5   6
HETATM    6  N10 UNL     1     -33.153   8.081   1.885  1.00 20.00    -0.341 N 
HETATM    7  C3  UNL     1     -33.159   6.734   2.218  1.00 20.00     0.222 C 
HETATM    8  O11 UNL     1     -32.476   5.873   1.667  1.00 20.00    -0.273 OA
HETATM    9  H26 UNL     1     -33.757   8.713   2.402  1.00 20.00     0.164 HD
BRANCH   7  10
HETATM   10  C8  UNL     1     -34.124   6.419   3.360  1.00 20.00     0.070 C 
HETATM   11  C4  UNL     1     -33.629   5.208   4.148  1.00 20.00     0.019 C 
HETATM   12  C5  UNL     1     -34.293   7.623   4.283  1.00 20.00     0.019 C 
ENDBRANCH   7  10
ENDBRANCH   5   6
TORSDOF 2
