REMARK  0 active torsions:
REMARK  status: ('A' for Active; 'I' for Inactive)
ROOT
HETATM    1  C1  UNL     1     -32.836   5.562   1.546  1.00 20.00     0.014 A 
HETATM    2  C2  UNL     1     -31.973   6.496   0.969  1.00 20.00     0.024 A 
HETATM    3  C3  UNL     1     -34.493   4.993   3.261  1.00 20.00     0.031 A 
HETATM    4  C4  UNL     1     -32.651   8.140   2.602  1.00 20.00     0.039 A 
HETATM    5  C5  UNL     1     -35.232   5.409   4.358  1.00 20.00     0.119 A 
HETATM    6  C6  UNL     1     -33.619   5.906   2.660  1.00 20.00    -0.021 A 
HETATM    7  C7  UNL     1     -33.522   7.209   3.191  1.00 20.00     0.016 A 
HETATM    8  C8  UNL     1     -31.881   7.782   1.496  1.00 20.00     0.035 A 
HETATM    9  C9  UNL     1     -34.316   7.514   4.299  1.00 20.00     0.136 A 
HETATM   10  N10 UNL     1     -35.166   6.647   4.893  1.00 20.00    -0.248 NA
HETATM   11 CL11 UNL     1     -30.815   8.928   0.780  1.00 20.00    -0.084 Cl
HETATM   12 CL12 UNL     1     -34.327   9.055   5.078  1.00 20.00    -0.061 Cl
ENDROOT
TORSDOF 0
