REMARK  1 active torsions:
REMARK  status: ('A' for Active; 'I' for Inactive)
REMARK    1  A    between atoms: C6_6  and  N7_7 
ROOT
HETATM    1  C1  UNL     1     -31.431   6.940   1.554  1.00 20.00     0.000 C 
HETATM    2  C2  UNL     1     -32.327   8.078   2.033  1.00 20.00     0.003 C 
HETATM    3  C3  UNL     1     -32.219   5.653   1.325  1.00 20.00     0.003 C 
HETATM    4  C4  UNL     1     -33.127   7.683   3.276  1.00 20.00     0.046 C 
HETATM    5  C5  UNL     1     -33.019   5.252   2.566  1.00 20.00     0.046 C 
HETATM    6  C6  UNL     1     -33.920   6.382   3.085  1.00 20.00     0.136 C 
HETATM    7 CL9  UNL     1     -35.289   6.650   1.957  1.00 20.00    -0.098 Cl
ENDROOT
BRANCH   6   8
HETATM    8  N7  UNL     1     -34.507   5.972   4.400  1.00 20.00    -0.037 NA
HETATM    9  O8  UNL     1     -35.154   4.931   4.299  1.00 20.00    -0.099 OA
ENDBRANCH   6   8
TORSDOF 1
