REMARK  2 active torsions:
REMARK  status: ('A' for Active; 'I' for Inactive)
REMARK    1  A    between atoms: C2_2  and  C4_4 
REMARK    2  A    between atoms: C4_4  and  S6_6 
ROOT
HETATM    1  C1  UNL     1     -31.962   9.311  -0.200  1.00 20.00     0.201 A 
HETATM    2  C2  UNL     1     -32.745   8.640   0.894  1.00 20.00     0.154 A 
HETATM    3  O5  UNL     1     -32.664  10.066   0.801  1.00 20.00    -0.380 OA
ENDROOT
BRANCH   2   4
HETATM    4  C4  UNL     1     -32.066   8.059   2.081  1.00 20.00     0.107 C 
BRANCH   4   5
HETATM    5  S6  UNL     1     -33.225   7.841   3.474  1.00 20.00    -0.171 SA
HETATM    6  C3  UNL     1     -34.000   6.306   2.921  1.00 20.00     0.089 C 
ENDBRANCH   4   5
ENDBRANCH   2   4
TORSDOF 2
