REMARK  0 active torsions:
REMARK  status: ('A' for Active; 'I' for Inactive)
ROOT
HETATM    1  C1  UNL     1     -34.768   7.091   3.888  1.00 20.00     0.033 A 
HETATM    2  C2  UNL     1     -35.341   5.983   4.490  1.00 20.00     0.117 A 
HETATM    3  C3  UNL     1     -33.865   4.485   3.507  1.00 20.00     0.136 A 
HETATM    4  C4  UNL     1     -31.871   7.160   1.565  1.00 20.00     0.070 A 
HETATM    5  C5  UNL     1     -33.668   6.866   3.038  1.00 20.00     0.002 A 
HETATM    6  C6  UNL     1     -33.232   5.549   2.862  1.00 20.00     0.034 A 
HETATM    7  C7  UNL     1     -32.867   7.783   2.279  1.00 20.00     0.029 A 
HETATM    8  N8  UNL     1     -34.920   4.715   4.319  1.00 20.00    -0.272 NA
HETATM    9  S9  UNL     1     -31.882   5.471   1.794  1.00 20.00    -0.098 SA
HETATM   10 BR10 UNL     1     -33.152   9.651   2.264  1.00 20.00    -0.050 Br
ENDROOT
TORSDOF 0
