REMARK  2 active torsions:
REMARK  status: ('A' for Active; 'I' for Inactive)
REMARK    1  A    between atoms: C1_1  and  C3_3 
REMARK    2  A    between atoms: C2_2  and  C9_9 
ROOT
HETATM    1  C1  UNL     1     -33.244   7.513   3.025  1.00 20.00    -0.071 C 
HETATM    2  C2  UNL     1     -32.617   7.982   2.114  1.00 20.00    -0.095 C 
ENDROOT
BRANCH   1   3
HETATM    3  C3  UNL     1     -34.007   6.943   4.133  1.00 20.00     0.229 A 
HETATM    4  C4  UNL     1     -34.547   5.555   4.044  1.00 20.00     0.160 A 
HETATM    5  C5  UNL     1     -34.350   4.647   2.882  1.00 20.00     0.043 C 
HETATM    6  O10 UNL     1     -35.364   6.698   3.774  1.00 20.00    -0.363 OA
ENDBRANCH   1   3
BRANCH   2   7
HETATM    7  C9  UNL     1     -31.846   8.559   0.991  1.00 20.00     0.013 C 
HETATM    8  C6  UNL     1     -32.629   9.732   0.384  1.00 20.00     0.028 C 
HETATM    9  C7  UNL     1     -31.620   7.483  -0.080  1.00 20.00     0.028 C 
HETATM   10  C8  UNL     1     -30.490   9.061   1.508  1.00 20.00     0.028 C 
ENDBRANCH   2   7
TORSDOF 2
