REMARK  0 active torsions:
REMARK  status: ('A' for Active; 'I' for Inactive)
ROOT
HETATM    1  C1  UNL     1     -33.991   7.510   4.234  1.00 20.00     0.116 C 
HETATM    2  C2  UNL     1     -32.816   6.833   1.983  1.00 20.00     0.344 C 
HETATM    3  C3  UNL     1     -34.702   6.440   3.387  1.00 20.00     0.159 C 
HETATM    4  C4  UNL     1     -35.333   5.382   4.305  1.00 20.00     0.049 C 
HETATM    5  C5  UNL     1     -35.812   7.042   2.505  1.00 20.00     0.049 C 
HETATM    6  N6  UNL     1     -33.668   5.787   2.552  1.00 20.00     0.102 N 
HETATM    7  S7  UNL     1     -32.704   8.197   3.163  1.00 20.00    -0.137 SA
HETATM    8  H18 UNL     1     -34.131   5.310   1.784  1.00 20.00     0.317 HD
ENDROOT
TORSDOF 0
