REMARK  2 active torsions:
REMARK  status: ('A' for Active; 'I' for Inactive)
REMARK    1  A    between atoms: C1_1  and  C6_6 
REMARK    2  A    between atoms: C1_1  and  O9_9 
ROOT
HETATM    1  C2  UNL     1     -33.881   7.462   4.320  1.00 20.00     0.024 C 
HETATM    2  C3  UNL     1     -35.454   7.109   2.942  1.00 20.00     0.024 C 
HETATM    3  C4  UNL     1     -34.611   5.493   4.024  1.00 20.00     0.024 C 
HETATM    4  C5  UNL     1     -35.305   6.824   4.476  1.00 20.00    -0.011 C 
HETATM    5  C6  UNL     1     -34.001   6.554   3.057  1.00 20.00     0.049 C 
ENDROOT
BRANCH   5   6
HETATM    6  C1  UNL     1     -33.005   6.351   1.975  1.00 20.00     0.267 C 
HETATM    7  O8  UNL     1     -32.579   7.247   1.259  1.00 20.00    -0.264 OA
BRANCH   6   8
HETATM    8  O9  UNL     1     -32.657   5.034   1.916  1.00 20.00    -0.326 OA
HETATM    9  C7  UNL     1     -31.698   4.696   0.910  1.00 20.00     0.213 C 
ENDBRANCH   6   8
ENDBRANCH   5   6
TORSDOF 2
