REMARK  0 active torsions:
REMARK  status: ('A' for Active; 'I' for Inactive)
ROOT
HETATM    1  C1  UNL     1     -33.159   8.108   2.807  1.00 20.00     0.045 C 
HETATM    2  C2  UNL     1     -33.676   6.943   3.245  1.00 20.00     0.011 C 
HETATM    3  C3  UNL     1     -31.991   8.152   1.892  1.00 20.00     0.028 C 
HETATM    4  C4  UNL     1     -33.087   5.615   2.780  1.00 20.00     0.059 C 
HETATM    5  C5  UNL     1     -31.315   6.858   1.500  1.00 20.00     0.067 C 
HETATM    6  C6  UNL     1     -32.304   5.686   1.446  1.00 20.00    -0.038 C 
HETATM    7  C7  UNL     1     -31.522   4.374   1.251  1.00 20.00     0.015 C 
HETATM    8  C8  UNL     1     -33.270   5.846   0.254  1.00 20.00     0.015 C 
HETATM    9  N9  UNL     1     -31.504   9.263   1.441  1.00 20.00    -0.305 NA
HETATM   10  S10 UNL     1     -35.024   6.781   4.354  1.00 20.00    -0.085 SA
HETATM   11  H22 UNL     1     -30.709   9.055   0.832  1.00 20.00     0.186 HD
ENDROOT
TORSDOF 0
