REMARK  2 active torsions:
REMARK  status: ('A' for Active; 'I' for Inactive)
REMARK    1  A    between atoms: C1_1  and  C7_7 
REMARK    2  A    between atoms: C6_6  and  N8_8 
ROOT
HETATM    1  C1  UNL     1     -33.024   7.159   2.636  1.00 20.00     0.108 C 
HETATM    2  N8  UNL     1     -33.570   5.992   2.691  1.00 20.00    -0.299 NA
ENDROOT
BRANCH   1   3
HETATM    3  C7  UNL     1     -32.176   7.600   1.458  1.00 20.00     0.063 C 
HETATM    4  C4  UNL     1     -32.812   8.836   0.824  1.00 20.00     0.038 C 
HETATM    5  C5  UNL     1     -31.966   6.502   0.419  1.00 20.00     0.038 C 
HETATM    6 CL9  UNL     1     -30.589   8.051   2.159  1.00 20.00    -0.114 Cl
ENDBRANCH   1   3
BRANCH   2   7
HETATM    7  C6  UNL     1     -34.337   5.779   3.914  1.00 20.00     0.099 C 
HETATM    8  C2  UNL     1     -35.766   6.252   3.690  1.00 20.00     0.034 C 
HETATM    9  C3  UNL     1     -34.282   4.303   4.281  1.00 20.00     0.034 C 
ENDBRANCH   2   7
TORSDOF 2
