REMARK  4 active torsions:
REMARK  status: ('A' for Active; 'I' for Inactive)
REMARK    1  A    between atoms: C1_1  and  C6_6 
REMARK    2  A    between atoms: C1_1  and  C9_9 
REMARK    3  A    between atoms: C7_7  and  C8_8 
REMARK    4  A    between atoms: C8_8  and  N10_10 
ROOT
HETATM    1  C1  UNL     1     -33.004   7.190   2.572  1.00 20.00     0.009 C 
HETATM    2  N10 UNL     1     -32.241   8.228   2.503  1.00 20.00    -0.298 NA
ENDROOT
BRANCH   1   3
HETATM    3  C6  UNL     1     -33.202   6.174   1.459  1.00 20.00     0.050 C 
HETATM    4  C2  UNL     1     -32.168   5.067   1.557  1.00 20.00     0.011 C 
ENDBRANCH   1   3
BRANCH   1   5
HETATM    5  C9  UNL     1     -33.766   6.941   3.876  1.00 20.00     0.025 C 
HETATM    6  C4  UNL     1     -35.264   6.874   3.599  1.00 20.00     0.016 C 
HETATM    7  C5  UNL     1     -33.437   8.014   4.910  1.00 20.00     0.016 C 
ENDBRANCH   1   5
BRANCH   2   8
HETATM    8  C8  UNL     1     -31.489   8.490   1.288  1.00 20.00     0.148 C 
BRANCH   8   9
HETATM    9  C7  UNL     1     -32.315   9.356   0.345  1.00 20.00     0.017 C 
HETATM   10  C3  UNL     1     -32.675  10.704   0.953  1.00 20.00     0.007 C 
ENDBRANCH   8   9
ENDBRANCH   2   8
TORSDOF 4
