REMARK  2 active torsions:
REMARK  status: ('A' for Active; 'I' for Inactive)
REMARK    1  A    between atoms: C2_2  and  C4_4 
REMARK    2  A    between atoms: C4_4  and  S5_5 
ROOT
HETATM    1  C1  UNL     1     -31.165   7.938   1.712  1.00 20.00     0.051 A 
HETATM    2  C2  UNL     1     -32.389   8.144   0.862  1.00 20.00     0.036 A 
HETATM    3  C3  UNL     1     -32.424   7.161   2.010  1.00 20.00     0.118 A 
HETATM    4 CL6  UNL     1     -32.441   5.442   1.615  1.00 20.00    -0.101 Cl
HETATM    5 CL7  UNL     1     -33.299   7.541   3.487  1.00 20.00    -0.101 Cl
ENDROOT
BRANCH   2   6
HETATM    6  C4  UNL     1     -33.107   9.451   0.896  1.00 20.00     0.078 C 
BRANCH   6   7
HETATM    7  S5  UNL     1     -32.276  10.691  -0.150  1.00 20.00    -0.182 SA
HETATM    8  H13 UNL     1     -33.140  11.682   0.104  1.00 20.00     0.101 HD
ENDBRANCH   6   7
ENDBRANCH   2   6
TORSDOF 2
