REMARK  1 active torsions:
REMARK  status: ('A' for Active; 'I' for Inactive)
REMARK    1  A    between atoms: C2_2  and  C5_5 
ROOT
HETATM    1  C1  UNL     1     -34.650   7.377   4.543  1.00 20.00     0.065 A 
HETATM    2  C2  UNL     1     -34.244   6.281   3.812  1.00 20.00     0.015 A 
HETATM    3  C3  UNL     1     -33.436   6.649   2.694  1.00 20.00    -0.031 A 
HETATM    4  C4  UNL     1     -33.270   8.019   2.623  1.00 20.00    -0.010 A 
HETATM    5  C6  UNL     1     -32.842   5.721   1.681  1.00 20.00     0.040 C 
HETATM    6  C7  UNL     1     -32.459   8.734   1.588  1.00 20.00     0.046 C 
HETATM    7  C8  UNL     1     -31.739   6.405   0.859  1.00 20.00     0.005 C 
HETATM    8  C9  UNL     1     -32.164   7.807   0.398  1.00 20.00     0.005 C 
HETATM    9  S11 UNL     1     -34.062   8.844   3.884  1.00 20.00    -0.105 SA
ENDROOT
BRANCH   2  10
HETATM   10  C5  UNL     1     -34.622   4.940   4.177  1.00 20.00     0.271 C 
HETATM   11  O10 UNL     1     -34.275   3.931   3.543  1.00 20.00    -0.301 OA
ENDBRANCH   2  10
TORSDOF 1
