REMARK  3 active torsions:
REMARK  status: ('A' for Active; 'I' for Inactive)
REMARK    1  A    between atoms: C1_1  and  C3_3 
REMARK       I    between atoms: C1_1  and  N10_10 
REMARK    2  A    between atoms: C8_8  and  C9_9 
REMARK    3  A    between atoms: C8_8  and  N10_10 
ROOT
HETATM    1  C1  UNL     1     -33.434   7.041   3.216  1.00 20.00     0.222 C 
HETATM    2  N10 UNL     1     -32.940   7.001   1.947  1.00 20.00    -0.360 N 
HETATM    3  O11 UNL     1     -32.953   7.609   4.190  1.00 20.00    -0.273 OA
HETATM    4  H28 UNL     1     -33.442   6.495   1.246  1.00 20.00     0.162 HD
ENDROOT
BRANCH   1   5
HETATM    5  C3  UNL     1     -34.713   6.285   3.363  1.00 20.00     0.082 A 
HETATM    6  C2  UNL     1     -35.094   5.783   4.719  1.00 20.00     0.019 A 
HETATM    7  C4  UNL     1     -34.689   4.815   3.644  1.00 20.00    -0.005 A 
HETATM    8  C5  UNL     1     -33.426   4.035   3.781  1.00 20.00     0.011 C 
ENDBRANCH   1   5
BRANCH   2   9
HETATM    9  C8  UNL     1     -31.681   7.686   1.575  1.00 20.00     0.126 C 
BRANCH   9  10
HETATM   10  C9  UNL     1     -31.906   8.738   0.483  1.00 20.00    -0.005 C 
HETATM   11  C6  UNL     1     -32.473   8.130  -0.801  1.00 20.00     0.011 C 
HETATM   12  C7  UNL     1     -32.787   9.890   0.968  1.00 20.00     0.011 C 
ENDBRANCH   9  10
ENDBRANCH   2   9
TORSDOF 3
