REMARK  3 active torsions:
REMARK  status: ('A' for Active; 'I' for Inactive)
REMARK    1  A    between atoms: C1_1  and  C3_3 
REMARK       I    between atoms: C1_1  and  N10_10 
REMARK    2  A    between atoms: C8_8  and  C9_9 
REMARK    3  A    between atoms: C8_8  and  N10_10 
ROOT
HETATM    1  C1  UNL     1     -32.977   6.931   2.220  1.00 20.00     0.222 C 
HETATM    2  N10 UNL     1     -32.330   8.129   2.146  1.00 20.00    -0.360 N 
HETATM    3  O11 UNL     1     -33.004   6.042   1.376  1.00 20.00    -0.273 OA
HETATM    4  H28 UNL     1     -32.395   8.763   2.917  1.00 20.00     0.162 HD
ENDROOT
BRANCH   1   5
HETATM    5  C3  UNL     1     -33.714   6.750   3.504  1.00 20.00     0.082 A 
HETATM    6  C2  UNL     1     -34.701   7.797   3.912  1.00 20.00     0.019 A 
HETATM    7  C4  UNL     1     -35.179   6.451   3.445  1.00 20.00    -0.005 A 
HETATM    8  C5  UNL     1     -35.771   5.488   4.416  1.00 20.00     0.011 C 
ENDBRANCH   1   5
BRANCH   2   9
HETATM    9  C8  UNL     1     -31.534   8.517   0.960  1.00 20.00     0.126 C 
BRANCH   9  10
HETATM   10  C9  UNL     1     -32.385   9.256  -0.079  1.00 20.00    -0.005 C 
HETATM   11  C6  UNL     1     -33.000  10.540   0.479  1.00 20.00     0.011 C 
HETATM   12  C7  UNL     1     -31.602   9.547  -1.360  1.00 20.00     0.011 C 
ENDBRANCH   9  10
ENDBRANCH   2   9
TORSDOF 3
