REMARK  0 active torsions:
REMARK  status: ('A' for Active; 'I' for Inactive)
ROOT
HETATM    1  C1  UNL     1     -34.370   7.985   4.552  1.00 20.00     0.137 A 
HETATM    2  C2  UNL     1     -34.679   6.703   4.124  1.00 20.00     0.118 A 
HETATM    3  C3  UNL     1     -33.103   7.629   2.914  1.00 20.00     0.177 A 
HETATM    4  C4  UNL     1     -33.590   5.490   2.169  1.00 20.00     0.112 A 
HETATM    5  C5  UNL     1     -32.626   5.835   1.295  1.00 20.00    -0.002 A 
HETATM    6  C6  UNL     1     -32.099   4.989   0.190  1.00 20.00     0.058 C 
HETATM    7  N7  UNL     1     -33.375   8.562   3.784  1.00 20.00    -0.235 NA
HETATM    8  N8  UNL     1     -33.846   6.499   3.067  1.00 20.00    -0.309 N 
HETATM    9  S9  UNL     1     -31.999   7.479   1.583  1.00 20.00    -0.055 SA
ENDROOT
TORSDOF 0
