REMARK  1 active torsions:
REMARK  status: ('A' for Active; 'I' for Inactive)
REMARK    1  A    between atoms: C1_1  and  C4_4 
ROOT
HETATM    1  C2  UNL     1     -32.126   8.488   3.042  1.00 20.00     0.023 C 
HETATM    2  C3  UNL     1     -33.424   8.032   3.691  1.00 20.00     0.075 C 
HETATM    3  C4  UNL     1     -32.136   8.018   1.587  1.00 20.00     0.066 C 
HETATM    4  C5  UNL     1     -32.595   6.545   1.581  1.00 20.00     0.010 C 
HETATM    5  C6  UNL     1     -33.234   6.092   0.265  1.00 20.00     0.027 C 
HETATM    6  C7  UNL     1     -31.427   5.605   1.923  1.00 20.00     0.027 C 
HETATM    7  S9  UNL     1     -33.825   6.432   2.939  1.00 20.00    -0.159 SA
ENDROOT
BRANCH   3   8
HETATM    8  C1  UNL     1     -32.996   8.935   0.759  1.00 20.00     0.237 C 
HETATM    9  O8  UNL     1     -32.564   9.615  -0.167  1.00 20.00    -0.306 OA
ENDBRANCH   3   8
TORSDOF 1
