REMARK  2 active torsions:
REMARK  status: ('A' for Active; 'I' for Inactive)
REMARK    1  A    between atoms: C5_5  and  C6_6 
REMARK    2  A    between atoms: C7_7  and  N9_9 
ROOT
HETATM    1  C1  UNL     1     -32.349   9.421   0.119  1.00 20.00     0.079 C 
HETATM    2  C7  UNL     1     -31.639   8.644   1.138  1.00 20.00     0.252 C 
HETATM    3  N8  UNL     1     -32.910  10.038  -0.688  1.00 20.00    -0.196 NA
ENDROOT
BRANCH   2   4
HETATM    4  N9  UNL     1     -32.223   7.334   1.323  1.00 20.00    -0.341 N 
HETATM    5  C4  UNL     1     -32.040   6.273   0.475  1.00 20.00     0.092 A 
HETATM    6  C2  UNL     1     -32.748   5.203   0.977  1.00 20.00     0.020 A 
HETATM    7  C3  UNL     1     -33.379   5.636   2.169  1.00 20.00     0.034 A 
HETATM    8  C5  UNL     1     -33.037   6.957   2.359  1.00 20.00     0.073 A 
BRANCH   8   9
HETATM    9  C6  UNL     1     -33.440   7.817   3.430  1.00 20.00     0.288 C 
HETATM   10  O10 UNL     1     -34.183   7.464   4.366  1.00 20.00    -0.300 OA
ENDBRANCH   8   9
ENDBRANCH   2   4
TORSDOF 2
