REMARK  1 active torsions:
REMARK  status: ('A' for Active; 'I' for Inactive)
REMARK    1  A    between atoms: C3_3  and  C7_7 
ROOT
HETATM    1  C1  UNL     1     -34.306   7.644   4.261  1.00 20.00    -0.030 C 
HETATM    2  C2  UNL     1     -33.324   8.216   3.550  1.00 20.00    -0.025 C 
HETATM    3  C4  UNL     1     -34.745   6.226   4.065  1.00 20.00     0.028 C 
HETATM    4  C5  UNL     1     -33.776   5.414   3.201  1.00 20.00     0.021 C 
HETATM    5  C6  UNL     1     -32.566   7.509   2.450  1.00 20.00     0.018 C 
HETATM    6  C7  UNL     1     -33.274   6.202   1.971  1.00 20.00     0.016 C 
HETATM    7  C8  UNL     1     -32.276   8.490   1.306  1.00 20.00     0.015 C 
HETATM    8  C9  UNL     1     -34.431   6.456   0.988  1.00 20.00     0.023 C 
ENDROOT
BRANCH   6   9
HETATM    9  C3  UNL     1     -32.267   5.318   1.273  1.00 20.00     0.241 C 
HETATM   10  O10 UNL     1     -32.394   4.932   0.116  1.00 20.00    -0.306 OA
ENDBRANCH   6   9
TORSDOF 1
