REMARK  1 active torsions:
REMARK  status: ('A' for Active; 'I' for Inactive)
REMARK    1  A    between atoms: C3_3  and  C7_7 
ROOT
HETATM    1  C1  UNL     1     -32.217   7.820   1.599  1.00 20.00    -0.030 C 
HETATM    2  C2  UNL     1     -32.278   8.064   2.915  1.00 20.00    -0.025 C 
HETATM    3  C4  UNL     1     -32.773   6.584   0.965  1.00 20.00     0.028 C 
HETATM    4  C5  UNL     1     -33.118   5.498   1.986  1.00 20.00     0.021 C 
HETATM    5  C6  UNL     1     -32.947   7.142   3.911  1.00 20.00     0.018 C 
HETATM    6  C7  UNL     1     -33.841   6.056   3.233  1.00 20.00     0.016 C 
HETATM    7  C8  UNL     1     -33.697   7.984   4.953  1.00 20.00     0.015 C 
HETATM    8  C9  UNL     1     -35.244   6.560   2.855  1.00 20.00     0.023 C 
ENDROOT
BRANCH   6   9
HETATM    9  C3  UNL     1     -34.034   4.896   4.181  1.00 20.00     0.241 C 
HETATM   10  O10 UNL     1     -35.133   4.512   4.565  1.00 20.00    -0.306 OA
ENDBRANCH   6   9
TORSDOF 1
