REMARK  3 active torsions:
REMARK  status: ('A' for Active; 'I' for Inactive)
REMARK    1  A    between atoms: C1_1  and  C5_5 
REMARK    2  A    between atoms: C6_6  and  C8_8 
REMARK    3  A    between atoms: C8_8  and  C9_9 
ROOT
HETATM    1  C2  UNL     1     -32.037   6.070   2.150  1.00 20.00     0.028 C 
HETATM    2  C3  UNL     1     -32.872   7.838   2.986  1.00 20.00     0.028 C 
HETATM    3  C4  UNL     1     -33.854   6.857   1.375  1.00 20.00     0.028 C 
HETATM    4  C5  UNL     1     -33.410   6.400   2.786  1.00 20.00     0.038 C 
HETATM    5  C6  UNL     1     -32.403   7.475   1.517  1.00 20.00    -0.037 C 
ENDROOT
BRANCH   4   6
HETATM    6  C1  UNL     1     -34.178   5.578   3.760  1.00 20.00     0.227 C 
HETATM    7  O10 UNL     1     -33.758   4.499   4.166  1.00 20.00    -0.279 OA
HETATM    8 CL11 UNL     1     -35.677   6.332   4.213  1.00 20.00    -0.043 Cl
ENDBRANCH   4   6
BRANCH   5   9
HETATM    9  C8  UNL     1     -31.638   8.292   0.552  1.00 20.00     0.009 C 
BRANCH   9  10
HETATM   10  C9  UNL     1     -32.519   9.300  -0.215  1.00 20.00    -0.004 C 
HETATM   11  C7  UNL     1     -33.250  10.266   0.703  1.00 20.00     0.005 C 
ENDBRANCH   9  10
ENDBRANCH   5   9
TORSDOF 3
