REMARK  3 active torsions:
REMARK  status: ('A' for Active; 'I' for Inactive)
REMARK    1  A    between atoms: C1_1  and  C7_7 
REMARK    2  A    between atoms: C7_7  and  C8_8 
REMARK    3  A    between atoms: N9_9  and  N10_10 
ROOT
HETATM    1  C1  UNL     1     -32.579   6.516   1.522  1.00 20.00     0.023 C 
HETATM    2  C2  UNL     1     -31.713   5.657   0.624  1.00 20.00     0.067 C 
HETATM    3  N9  UNL     1     -32.850   6.259   2.768  1.00 20.00    -0.209 NA
ENDROOT
BRANCH   1   4
HETATM    4  C7  UNL     1     -33.216   7.751   0.907  1.00 20.00     0.059 C 
BRANCH   4   5
HETATM    5  C8  UNL     1     -32.304   8.982   1.009  1.00 20.00    -0.017 C 
HETATM    6  C3  UNL     1     -30.973   8.760   0.288  1.00 20.00     0.010 C 
HETATM    7  C4  UNL     1     -33.012  10.207   0.427  1.00 20.00     0.010 C 
ENDBRANCH   4   5
ENDBRANCH   1   4
BRANCH   3   8
HETATM    8  N10 UNL     1     -33.648   7.164   3.385  1.00 20.00    -0.217 NA
HETATM    9  C5  UNL     1     -33.034   7.810   4.551  1.00 20.00     0.138 C 
HETATM   10  C6  UNL     1     -34.953   6.625   3.778  1.00 20.00     0.138 C 
ENDBRANCH   3   8
TORSDOF 3
