REMARK  2 active torsions:
REMARK  status: ('A' for Active; 'I' for Inactive)
REMARK    1  A    between atoms: C2_2  and  C7_7 
REMARK    2  A    between atoms: C3_3  and  C7_7 
ROOT
HETATM    1  C6  UNL     1     -32.555   5.451   1.498  1.00 20.00     0.022 C 
HETATM    2  C7  UNL     1     -32.556   6.887   2.012  1.00 20.00     0.073 C 
ENDROOT
BRANCH   2   3
HETATM    3  C2  UNL     1     -33.025   7.847   0.955  1.00 20.00    -0.019 C 
HETATM    4  C1  UNL     1     -32.280   8.862   0.491  1.00 20.00    -0.034 C 
HETATM    5  C4  UNL     1     -32.739   9.818  -0.559  1.00 20.00     0.036 C 
ENDBRANCH   2   3
BRANCH   2   6
HETATM    6  C3  UNL     1     -33.491   7.037   3.206  1.00 20.00     0.130 C 
HETATM    7  C5  UNL     1     -34.712   6.153   3.227  1.00 20.00     0.091 C 
HETATM    8  O8  UNL     1     -33.296   7.865   4.096  1.00 20.00    -0.298 OA
ENDBRANCH   2   6
TORSDOF 2
