REMARK  2 active torsions:
REMARK  status: ('A' for Active; 'I' for Inactive)
REMARK    1  A    between atoms: C1_1  and  C8_8 
REMARK    2  A    between atoms: C2_2  and  C3_3 
ROOT
HETATM    1  C1  UNL     1     -32.713   8.015   2.343  1.00 20.00    -0.009 C 
HETATM    2  C3  UNL     1     -33.237   6.780   2.464  1.00 20.00    -0.027 C 
HETATM    3  C4  UNL     1     -33.132   5.620   1.527  1.00 20.00     0.051 C 
ENDROOT
BRANCH   1   4
HETATM    4  C8  UNL     1     -31.887   8.623   1.212  1.00 20.00    -0.033 C 
HETATM    5  C5  UNL     1     -30.521   9.059   1.793  1.00 20.00     0.018 C 
HETATM    6  C6  UNL     1     -31.612   7.587   0.110  1.00 20.00     0.018 C 
HETATM    7  C7  UNL     1     -32.550   9.880   0.621  1.00 20.00     0.018 C 
ENDBRANCH   1   4
BRANCH   2   8
HETATM    8  C2  UNL     1     -34.019   6.538   3.712  1.00 20.00     0.265 C 
HETATM    9  O9  UNL     1     -34.561   5.468   3.965  1.00 20.00    -0.302 OA
ENDBRANCH   2   8
TORSDOF 2
