REMARK  0 active torsions:
REMARK  status: ('A' for Active; 'I' for Inactive)
ROOT
HETATM    1  C1  UNL     1     -32.329   8.243   1.015  1.00 20.00     0.099 C 
HETATM    2  C2  UNL     1     -34.140   7.738   4.019  1.00 20.00    -0.026 C 
HETATM    3  C3  UNL     1     -33.145   8.241   3.278  1.00 20.00     0.019 C 
HETATM    4  C4  UNL     1     -34.557   6.306   3.899  1.00 20.00     0.057 C 
HETATM    5  C5  UNL     1     -33.509   5.456   3.172  1.00 20.00     0.277 C 
HETATM    6  C6  UNL     1     -32.410   7.423   2.240  1.00 20.00     0.350 C 
HETATM    7  C7  UNL     1     -32.153   5.232   1.201  1.00 20.00     0.312 C 
HETATM    8  N8  UNL     1     -32.265   8.887   0.053  1.00 20.00    -0.195 NA
HETATM    9  N9  UNL     1     -33.053   6.122   1.942  1.00 20.00     0.106 N 
ENDROOT
TORSDOF 0
