REMARK  3 active torsions:
REMARK  status: ('A' for Active; 'I' for Inactive)
REMARK    1  A    between atoms: C1_1  and  C3_3 
REMARK    2  A    between atoms: C2_2  and  C8_8 
REMARK    3  A    between atoms: C3_3  and  O10_10 
ROOT
HETATM    1  C1  UNL     1     -32.434   7.537   2.073  1.00 20.00     0.079 C 
HETATM    2  C2  UNL     1     -32.950   8.456   1.244  1.00 20.00    -0.012 C 
ENDROOT
BRANCH   1   3
HETATM    3  C3  UNL     1     -33.336   6.669   2.863  1.00 20.00     0.282 C 
HETATM    4  O9  UNL     1     -34.160   7.056   3.677  1.00 20.00    -0.260 OA
BRANCH   3   5
HETATM    5  O10 UNL     1     -33.077   5.380   2.513  1.00 20.00    -0.323 OA
HETATM    6  C7  UNL     1     -33.864   4.390   3.182  1.00 20.00     0.213 C 
ENDBRANCH   3   5
ENDBRANCH   1   3
BRANCH   2   7
HETATM    7  C8  UNL     1     -32.180   9.427   0.359  1.00 20.00    -0.034 C 
HETATM    8  C4  UNL     1     -32.461  10.913   0.654  1.00 20.00     0.018 C 
HETATM    9  C5  UNL     1     -30.676   9.167   0.554  1.00 20.00     0.018 C 
HETATM   10  C6  UNL     1     -32.553   9.143  -1.107  1.00 20.00     0.018 C 
ENDBRANCH   2   7
TORSDOF 3
