REMARK  0 active torsions:
REMARK  status: ('A' for Active; 'I' for Inactive)
ROOT
HETATM    1  C1  UNL     1     -33.523   6.311   2.768  1.00 20.00     0.037 C 
HETATM    2  C2  UNL     1     -31.845   6.796   1.525  1.00 20.00     0.017 C 
HETATM    3  C3  UNL     1     -34.309   5.562   3.548  1.00 20.00    -0.063 C 
HETATM    4  C4  UNL     1     -33.579   7.810   2.712  1.00 20.00     0.074 C 
HETATM    5  C5  UNL     1     -32.236   8.162   2.056  1.00 20.00    -0.002 C 
HETATM    6  C6  UNL     1     -30.687   6.606   0.595  1.00 20.00     0.066 C 
HETATM    7  C7  UNL     1     -34.215   4.063   3.569  1.00 20.00     0.045 C 
HETATM    8  C8  UNL     1     -35.341   6.168   4.457  1.00 20.00     0.045 C 
HETATM    9  C9  UNL     1     -32.408   9.194   0.945  1.00 20.00     0.021 C 
HETATM   10  C10 UNL     1     -31.212   8.633   3.090  1.00 20.00     0.021 C 
HETATM   11  N11 UNL     1     -32.552   5.795   1.948  1.00 20.00    -0.262 NA
ENDROOT
TORSDOF 0
