REMARK  2 active torsions:
REMARK  status: ('A' for Active; 'I' for Inactive)
REMARK    1  A    between atoms: C2_2  and  C3_3 
REMARK    2  A    between atoms: C4_4  and  C5_5 
ROOT
HETATM    1  C1  UNL     1     -32.874   5.009   3.074  1.00 20.00    -0.020 C 
HETATM    2  C2  UNL     1     -33.339   6.196   2.668  1.00 20.00    -0.062 C 
HETATM    3  C6  UNL     1     -33.888   4.264   3.876  1.00 20.00     0.028 C 
HETATM    4  C7  UNL     1     -34.739   6.433   3.136  1.00 20.00     0.038 C 
HETATM    5  C8  UNL     1     -34.931   5.338   4.186  1.00 20.00     0.008 C 
ENDROOT
BRANCH   2   6
HETATM    6  C3  UNL     1     -32.637   7.151   1.870  1.00 20.00     0.010 C 
HETATM    7  C4  UNL     1     -33.165   8.328   1.497  1.00 20.00     0.050 C 
BRANCH   7   8
HETATM    8  C5  UNL     1     -32.383   9.282   0.662  1.00 20.00     0.145 C 
HETATM    9  C9  UNL     1     -30.886   9.257   0.830  1.00 20.00     0.096 C 
HETATM   10  O10 UNL     1     -32.919  10.040  -0.143  1.00 20.00    -0.294 OA
ENDBRANCH   7   8
ENDBRANCH   2   6
TORSDOF 2
