REMARK  1 active torsions:
REMARK  status: ('A' for Active; 'I' for Inactive)
REMARK    1  A    between atoms: C1_1  and  C2_2 
ROOT
HETATM    1  C2  UNL     1     -33.016   6.574   1.710  1.00 20.00     0.462 C 
HETATM    2  F4  UNL     1     -32.910   5.295   1.269  1.00 20.00    -0.163 F 
HETATM    3  F5  UNL     1     -33.803   7.232   0.822  1.00 20.00    -0.163 F 
HETATM    4  F6  UNL     1     -31.778   7.123   1.623  1.00 20.00    -0.163 F 
ENDROOT
BRANCH   1   5
HETATM    5  C1  UNL     1     -33.560   6.643   3.098  1.00 20.00     0.300 C 
HETATM    6  O3  UNL     1     -33.753   7.678   3.719  1.00 20.00    -0.275 OA
HETATM    7 BR7  UNL     1     -33.997   5.016   3.984  1.00 20.00     0.001 Br
ENDBRANCH   1   5
TORSDOF 1
