REMARK  0 active torsions:
REMARK  status: ('A' for Active; 'I' for Inactive)
ROOT
HETATM    1  C1  UNL     1     -32.906   5.364   1.915  1.00 20.00     0.149 C 
HETATM    2  C2  UNL     1     -33.618   5.938   2.895  1.00 20.00     0.010 C 
HETATM    3  C3  UNL     1     -33.407   7.369   3.284  1.00 20.00     0.050 C 
HETATM    4  C4  UNL     1     -32.582   8.094   2.221  1.00 20.00     0.032 C 
HETATM    5  C5  UNL     1     -31.439   7.203   1.749  1.00 20.00     0.174 C 
HETATM    6  O6  UNL     1     -31.899   5.961   1.201  1.00 20.00    -0.362 OA
HETATM    7 BR7  UNL     1     -34.960   5.031   3.817  1.00 20.00    -0.054 Br
ENDROOT
TORSDOF 0
