REMARK  2 active torsions:
REMARK  status: ('A' for Active; 'I' for Inactive)
REMARK    1  A    between atoms: C2_2  and  C6_6 
REMARK    2  A    between atoms: C3_3  and  C7_7 
ROOT
HETATM    1  C1  UNL     1     -31.922   6.109   1.482  1.00 20.00     0.100 A 
HETATM    2  C2  UNL     1     -32.118   7.605   1.504  1.00 20.00     0.089 A 
HETATM    3  C3  UNL     1     -33.986   6.045   2.399  1.00 20.00     0.168 A 
HETATM    4  N8  UNL     1     -32.822   5.283   1.913  1.00 20.00    -0.289 NA
HETATM    5  S9  UNL     1     -33.713   7.834   2.311  1.00 20.00    -0.132 SA
ENDROOT
BRANCH   2   6
HETATM    6  C6  UNL     1     -32.132   8.153   0.088  1.00 20.00     0.016 C 
HETATM    7  C4  UNL     1     -32.347   9.634   0.063  1.00 20.00     0.006 C 
ENDBRANCH   2   6
BRANCH   3   8
HETATM    8  C7  UNL     1     -34.270   5.631   3.836  1.00 20.00     0.033 C 
HETATM    9  C5  UNL     1     -35.466   6.334   4.392  1.00 20.00     0.008 C 
ENDBRANCH   3   8
TORSDOF 2
