REMARK  0 active torsions:
REMARK  status: ('A' for Active; 'I' for Inactive)
ROOT
HETATM    1  C1  UNL     1     -32.878   7.587   2.606  1.00 20.00     0.011 C 
HETATM    2  C2  UNL     1     -31.732   7.819   1.660  1.00 20.00     0.054 C 
HETATM    3  C3  UNL     1     -31.716   6.519   0.855  1.00 20.00     0.006 C 
HETATM    4  C4  UNL     1     -35.010   6.822   4.231  1.00 20.00     0.022 C 
HETATM    5  C5  UNL     1     -32.396   5.483   1.753  1.00 20.00     0.011 C 
HETATM    6  C6  UNL     1     -34.122   5.725   3.659  1.00 20.00     0.012 C 
HETATM    7  C7  UNL     1     -34.208   8.089   4.515  1.00 20.00     0.148 C 
HETATM    8  C8  UNL     1     -33.546   6.265   2.373  1.00 20.00     0.033 C 
HETATM    9  N9  UNL     1     -33.190   8.439   3.514  1.00 20.00    -0.298 NA
ENDROOT
TORSDOF 0
