REMARK  0 active torsions:
REMARK  status: ('A' for Active; 'I' for Inactive)
ROOT
HETATM    1  C1  UNL     1     -33.721   7.338   3.167  1.00 20.00     0.131 C 
HETATM    2  C2  UNL     1     -33.992   6.032   2.469  1.00 20.00     0.079 C 
HETATM    3  C3  UNL     1     -32.651   5.731   1.814  1.00 20.00     0.013 C 
HETATM    4  C4  UNL     1     -32.729   9.383   2.047  1.00 20.00     0.021 C 
HETATM    5  C5  UNL     1     -32.505   7.779   0.260  1.00 20.00     0.014 C 
HETATM    6  C6  UNL     1     -32.457   8.011   2.671  1.00 20.00     0.060 C 
HETATM    7  C7  UNL     1     -32.014   7.085   1.531  1.00 20.00    -0.002 C 
HETATM    8  C8  UNL     1     -32.318   9.274   0.563  1.00 20.00    -0.047 C 
HETATM    9  C9  UNL     1     -33.209  10.138  -0.333  1.00 20.00     0.015 C 
HETATM   10  C10 UNL     1     -30.852   9.702   0.374  1.00 20.00     0.015 C 
HETATM   11  O11 UNL     1     -34.459   7.814   4.021  1.00 20.00    -0.298 OA
ENDROOT
TORSDOF 0
