REMARK  1 active torsions:
REMARK  status: ('A' for Active; 'I' for Inactive)
REMARK    1  A    between atoms: C1_1  and  C6_6 
ROOT
HETATM    1  C2  UNL     1     -32.930   5.750   1.247  1.00 20.00     0.001 C 
HETATM    2  C3  UNL     1     -33.859   5.610   2.449  1.00 20.00     0.011 C 
HETATM    3  C4  UNL     1     -31.728   6.640   1.562  1.00 20.00     0.009 C 
HETATM    4  C5  UNL     1     -33.091   7.861   3.310  1.00 20.00     0.020 C 
HETATM    5  C6  UNL     1     -34.296   6.971   2.989  1.00 20.00     0.048 C 
HETATM    6  C7  UNL     1     -32.119   8.028   2.119  1.00 20.00    -0.047 C 
HETATM    7  C8  UNL     1     -30.847   8.747   2.607  1.00 20.00     0.015 C 
HETATM    8  C9  UNL     1     -32.758   8.894   1.016  1.00 20.00     0.015 C 
ENDROOT
BRANCH   5   9
HETATM    9  C1  UNL     1     -35.116   6.765   4.227  1.00 20.00     0.235 C 
HETATM   10  O10 UNL     1     -35.785   5.758   4.434  1.00 20.00    -0.306 OA
ENDBRANCH   5   9
TORSDOF 1
