REMARK  3 active torsions:
REMARK  status: ('A' for Active; 'I' for Inactive)
REMARK    1  A    between atoms: C2_2  and  C7_7 
REMARK    2  A    between atoms: C5_5  and  C8_8 
REMARK    3  A    between atoms: C7_7  and  C8_8 
ROOT
HETATM    1  C3  UNL     1     -31.421   8.087   1.737  1.00 20.00     0.281 C 
HETATM    2  C4  UNL     1     -32.263   7.511   0.609  1.00 20.00     0.106 C 
HETATM    3  C5  UNL     1     -32.900   6.830   3.072  1.00 20.00     0.282 C 
HETATM    4  N9  UNL     1     -32.274   8.146   2.925  1.00 20.00     0.098 N 
HETATM    5  S10 UNL     1     -33.195   6.178   1.398  1.00 20.00    -0.132 SA
HETATM    6  H25 UNL     1     -31.724   8.374   3.752  1.00 20.00     0.317 HD
ENDROOT
BRANCH   3   7
HETATM    7  C8  UNL     1     -34.200   6.946   3.850  1.00 20.00     0.050 C 
BRANCH   7   8
HETATM    8  C7  UNL     1     -34.895   5.590   3.983  1.00 20.00     0.030 C 
BRANCH   8   9
HETATM    9  C2  UNL     1     -34.013   4.594   4.679  1.00 20.00    -0.031 C 
HETATM   10  C1  UNL     1     -33.644   3.422   4.141  1.00 20.00    -0.035 C 
HETATM   11  C6  UNL     1     -32.773   2.428   4.834  1.00 20.00     0.036 C 
ENDBRANCH   8   9
ENDBRANCH   7   8
ENDBRANCH   3   7
TORSDOF 3
