REMARK  0 active torsions:
REMARK  status: ('A' for Active; 'I' for Inactive)
ROOT
HETATM    1  C1  UNL     1     -34.603   7.122   4.426  1.00 20.00     0.143 A 
HETATM    2  C2  UNL     1     -33.202   7.675   2.740  1.00 20.00     0.059 A 
HETATM    3  C3  UNL     1     -33.213   6.365   2.297  1.00 20.00     0.063 A 
HETATM    4  C4  UNL     1     -34.619   5.809   3.980  1.00 20.00     0.048 A 
HETATM    5  C5  UNL     1     -32.371   8.546   1.848  1.00 20.00     0.062 C 
HETATM    6  C6  UNL     1     -31.525   7.487   1.122  1.00 20.00     0.016 C 
HETATM    7  C7  UNL     1     -32.392   6.210   1.044  1.00 20.00     0.036 C 
HETATM    8  C8  UNL     1     -35.426   4.785   4.702  1.00 20.00     0.072 C 
HETATM    9  C9  UNL     1     -31.561   4.940   0.997  1.00 20.00     0.016 C 
HETATM   10  N10 UNL     1     -33.894   8.093   3.808  1.00 20.00    -0.261 NA
HETATM   11  N11 UNL     1     -33.925   5.400   2.895  1.00 20.00    -0.254 NA
ENDROOT
TORSDOF 0
