REMARK  3 active torsions:
REMARK  status: ('A' for Active; 'I' for Inactive)
REMARK    1  A    between atoms: C5_5  and  N8_8 
REMARK    2  A    between atoms: C6_6  and  C7_7 
REMARK    3  A    between atoms: C7_7  and  N8_8 
ROOT
HETATM    1  C1  UNL     1     -32.740   9.704   0.015  1.00 20.00     0.013 C 
HETATM    2  C2  UNL     1     -32.200   8.837   0.646  1.00 20.00    -0.087 C 
HETATM    3  C5  UNL     1     -31.537   7.783   1.417  1.00 20.00     0.364 C 
ENDROOT
BRANCH   3   4
HETATM    4  N8  UNL     1     -32.472   6.701   1.722  1.00 20.00     0.095 N 
HETATM    5  C4  UNL     1     -32.992   6.112   0.489  1.00 20.00     0.310 C 
BRANCH   4   6
HETATM    6  C7  UNL     1     -33.569   7.192   2.556  1.00 20.00     0.272 C 
BRANCH   6   7
HETATM    7  C6  UNL     1     -34.232   6.079   3.358  1.00 20.00     0.026 C 
HETATM    8  C3  UNL     1     -35.389   6.579   4.212  1.00 20.00     0.007 C 
ENDBRANCH   6   7
ENDBRANCH   4   6
ENDBRANCH   3   4
TORSDOF 3
