REMARK  1 active torsions:
REMARK  status: ('A' for Active; 'I' for Inactive)
REMARK    1  A    between atoms: C1_1  and  C5_5 
ROOT
HETATM    1  C2  UNL     1     -31.288   6.926   1.645  1.00 20.00     0.006 C 
HETATM    2  C3  UNL     1     -32.267   8.109   1.610  1.00 20.00     0.006 C 
HETATM    3  C4  UNL     1     -33.415   6.179   0.900  1.00 20.00     0.011 C 
HETATM    4  C5  UNL     1     -32.811   5.644   3.169  1.00 20.00     0.059 C 
HETATM    5  C6  UNL     1     -32.224   5.707   1.737  1.00 20.00    -0.003 C 
HETATM    6  C7  UNL     1     -33.642   7.428   1.760  1.00 20.00    -0.006 C 
HETATM    7  C8  UNL     1     -33.844   6.814   3.185  1.00 20.00    -0.034 C 
HETATM    8  C9  UNL     1     -35.311   6.366   3.359  1.00 20.00     0.016 C 
HETATM    9  C10 UNL     1     -33.538   7.800   4.325  1.00 20.00     0.016 C 
ENDROOT
BRANCH   4  10
HETATM   10  C1  UNL     1     -33.383   4.286   3.447  1.00 20.00     0.236 C 
HETATM   11  O11 UNL     1     -33.902   3.977   4.515  1.00 20.00    -0.306 OA
ENDBRANCH   4  10
TORSDOF 1
