REMARK  2 active torsions:
REMARK  status: ('A' for Active; 'I' for Inactive)
REMARK    1  A    between atoms: C1_1  and  C6_6 
REMARK    2  A    between atoms: C7_7  and  N8_8 
ROOT
HETATM    1  C3  UNL     1     -31.663   6.805   1.421  1.00 20.00     0.039 C 
HETATM    2  C4  UNL     1     -32.201   9.125   0.618  1.00 20.00     0.039 C 
HETATM    3  C5  UNL     1     -31.203   8.789   2.900  1.00 20.00     0.039 C 
HETATM    4  C7  UNL     1     -32.127   8.201   1.833  1.00 20.00     0.042 C 
ENDROOT
BRANCH   4   5
HETATM    5  N8  UNL     1     -33.479   8.092   2.399  1.00 20.00    -0.296 NA
HETATM    6  C1  UNL     1     -33.519   7.327   3.430  1.00 20.00     0.084 C 
BRANCH   6   7
HETATM    7  C6  UNL     1     -34.819   7.086   4.144  1.00 20.00     0.042 C 
HETATM    8  C2  UNL     1     -35.132   5.602   4.159  1.00 20.00     0.010 C 
ENDBRANCH   6   7
ENDBRANCH   4   5
TORSDOF 2
