REMARK  2 active torsions:
REMARK  status: ('A' for Active; 'I' for Inactive)
REMARK       I    between atoms: C1_1  and  N9_9 
REMARK    1  A    between atoms: C7_7  and  C8_8 
REMARK    2  A    between atoms: C7_7  and  N9_9 
ROOT
HETATM    1  C3  UNL     1     -32.203   6.035   1.647  1.00 20.00     0.033 C 
HETATM    2  C7  UNL     1     -32.844   7.423   1.621  1.00 20.00     0.087 C 
ENDROOT
BRANCH   2   3
HETATM    3  C8  UNL     1     -31.996   8.528   0.910  1.00 20.00    -0.031 C 
HETATM    4  C4  UNL     1     -32.702   9.897   0.916  1.00 20.00     0.016 C 
HETATM    5  C5  UNL     1     -30.626   8.683   1.604  1.00 20.00     0.016 C 
HETATM    6  C6  UNL     1     -31.732   8.122  -0.557  1.00 20.00     0.016 C 
ENDBRANCH   2   3
BRANCH   2   7
HETATM    7  N9  UNL     1     -33.199   7.800   2.973  1.00 20.00    -0.356 N 
HETATM    8  C1  UNL     1     -33.991   7.017   3.789  1.00 20.00     0.213 C 
HETATM    9  C2  UNL     1     -34.227   7.600   5.143  1.00 20.00     0.117 C 
HETATM   10  O10 UNL     1     -34.489   5.935   3.502  1.00 20.00    -0.274 OA
HETATM   11  H27 UNL     1     -32.850   8.679   3.338  1.00 20.00     0.162 HD
ENDBRANCH   2   7
TORSDOF 2
