REMARK  0 active torsions:
REMARK  status: ('A' for Active; 'I' for Inactive)
ROOT
HETATM    1  C1  UNL     1     -33.057   7.957   3.524  1.00 20.00     0.292 C 
HETATM    2  C2  UNL     1     -33.412   5.841   2.556  1.00 20.00     0.346 C 
HETATM    3  C3  UNL     1     -32.170   8.171   2.284  1.00 20.00     0.029 C 
HETATM    4  C4  UNL     1     -30.807   8.748   2.661  1.00 20.00     0.028 C 
HETATM    5  C5  UNL     1     -32.854   9.047   1.228  1.00 20.00     0.028 C 
HETATM    6  C6  UNL     1     -34.931   6.609   4.278  1.00 20.00     0.310 C 
HETATM    7  N7  UNL     1     -34.098   6.992   3.146  1.00 20.00     0.094 N 
HETATM    8  S8  UNL     1     -31.988   6.478   1.621  1.00 20.00    -0.128 SA
ENDROOT
TORSDOF 0
