REMARK  1 active torsions:
REMARK  status: ('A' for Active; 'I' for Inactive)
REMARK    1  A    between atoms: C10_10  and  O11_11 
ROOT
HETATM    1  C1  UNL     1     -33.360   8.088   1.216  1.00 20.00    -0.025 C 
HETATM    2  C2  UNL     1     -32.404   8.622   1.991  1.00 20.00    -0.025 C 
HETATM    3  C3  UNL     1     -34.822   6.382   3.267  1.00 20.00     0.008 C 
HETATM    4  C4  UNL     1     -34.515   7.532   4.221  1.00 20.00     0.032 C 
HETATM    5  C5  UNL     1     -31.625   6.580   1.278  1.00 20.00     0.018 C 
HETATM    6  C6  UNL     1     -33.161   6.592   1.227  1.00 20.00     0.013 C 
HETATM    7  C7  UNL     1     -31.567   7.484   2.521  1.00 20.00     0.015 C 
HETATM    8  C8  UNL     1     -33.491   5.998   2.623  1.00 20.00     0.000 C 
HETATM    9  C9  UNL     1     -32.371   6.612   3.523  1.00 20.00     0.027 C 
HETATM   10  C10 UNL     1     -33.092   7.263   4.702  1.00 20.00     0.123 C 
ENDROOT
BRANCH  10  11
HETATM   11  O11 UNL     1     -32.468   8.450   5.148  1.00 20.00    -0.395 OA
HETATM   12  H25 UNL     1     -33.003   8.799   5.883  1.00 20.00     0.210 HD
ENDBRANCH  10  11
TORSDOF 1
