REMARK  2 active torsions:
REMARK  status: ('A' for Active; 'I' for Inactive)
REMARK    1  A    between atoms: C7_7  and  C10_10 
REMARK    2  A    between atoms: C7_7  and  O11_11 
ROOT
HETATM    1  C1  UNL     1     -33.852   6.465   3.308  1.00 20.00     0.000 C 
HETATM    2  C2  UNL     1     -33.372   5.532   2.201  1.00 20.00     0.000 C 
HETATM    3  C3  UNL     1     -34.069   7.918   2.888  1.00 20.00     0.003 C 
HETATM    4  C4  UNL     1     -32.094   5.970   1.485  1.00 20.00     0.003 C 
HETATM    5  C5  UNL     1     -32.757   8.655   2.632  1.00 20.00     0.038 C 
HETATM    6  C6  UNL     1     -32.321   7.156   0.546  1.00 20.00     0.038 C 
HETATM    7  C7  UNL     1     -32.207   8.545   1.200  1.00 20.00     0.061 C 
ENDROOT
BRANCH   7   8
HETATM    8  C10 UNL     1     -32.868   9.586   0.286  1.00 20.00     0.012 C 
HETATM    9  C8  UNL     1     -32.623  10.991   0.822  1.00 20.00     0.012 C 
HETATM   10  C9  UNL     1     -32.343   9.448  -1.138  1.00 20.00     0.012 C 
ENDBRANCH   7   8
BRANCH   7  11
HETATM   11  O11 UNL     1     -30.817   8.903   1.252  1.00 20.00    -0.389 OA
HETATM   12  H31 UNL     1     -30.402   8.269   1.853  1.00 20.00     0.210 HD
ENDBRANCH   7  11
TORSDOF 2
