REMARK  0 active torsions:
REMARK  status: ('A' for Active; 'I' for Inactive)
ROOT
HETATM    1  C1  UNL     1     -32.521  10.022  -0.073  1.00 20.00     0.015 C 
HETATM    2  C2  UNL     1     -32.508   9.137   0.739  1.00 20.00    -0.071 C 
HETATM    3  C3  UNL     1     -34.065   6.495   0.551  1.00 20.00     0.039 C 
HETATM    4  C4  UNL     1     -33.756   6.332   2.998  1.00 20.00     0.039 C 
HETATM    5  C5  UNL     1     -32.906   5.497   0.394  1.00 20.00     0.273 C 
HETATM    6  C6  UNL     1     -32.559   5.394   2.773  1.00 20.00     0.273 C 
HETATM    7  C7  UNL     1     -31.379   7.030   1.449  1.00 20.00     0.329 C 
HETATM    8  C8  UNL     1     -33.848   7.327   1.827  1.00 20.00     0.043 C 
HETATM    9  C9  UNL     1     -32.493   8.055   1.732  1.00 20.00     0.195 C 
HETATM   10  N10 UNL     1     -31.902   5.641   1.471  1.00 20.00     0.092 N 
HETATM   11  F11 UNL     1     -32.240   8.641   2.938  1.00 20.00    -0.227 F 
ENDROOT
TORSDOF 0
