REMARK  3 active torsions:
REMARK  status: ('A' for Active; 'I' for Inactive)
REMARK    1  A    between atoms: C1_1  and  C7_7 
REMARK    2  A    between atoms: C6_6  and  C7_7 
REMARK    3  A    between atoms: C6_6  and  C8_8 
ROOT
HETATM    1  C6  UNL     1     -33.541   5.775   3.057  1.00 20.00     0.019 C 
ENDROOT
BRANCH   1   2
HETATM    2  C7  UNL     1     -32.788   6.090   1.751  1.00 20.00     0.043 C 
HETATM    3  C2  UNL     1     -31.899   4.912   1.350  1.00 20.00     0.017 C 
BRANCH   2   4
HETATM    4  C1  UNL     1     -31.882   7.291   1.919  1.00 20.00     0.235 C 
HETATM    5  O9  UNL     1     -31.962   8.297   1.220  1.00 20.00    -0.306 OA
ENDBRANCH   2   4
ENDBRANCH   1   2
BRANCH   1   6
HETATM    6  C8  UNL     1     -34.438   6.902   3.648  1.00 20.00    -0.051 C 
HETATM    7  C3  UNL     1     -35.609   6.344   4.470  1.00 20.00     0.014 C 
HETATM    8  C4  UNL     1     -33.614   7.859   4.528  1.00 20.00     0.014 C 
HETATM    9  C5  UNL     1     -35.018   7.712   2.469  1.00 20.00     0.014 C 
ENDBRANCH   1   6
TORSDOF 3
