REMARK  0 active torsions:
REMARK  status: ('A' for Active; 'I' for Inactive)
ROOT
HETATM    1  C1  UNL     1     -34.025   4.831   3.948  1.00 20.00     0.135 C 
HETATM    2  C2  UNL     1     -33.439   6.908   2.885  1.00 20.00     0.092 C 
HETATM    3  C3  UNL     1     -34.347   7.424   4.010  1.00 20.00     0.073 C 
HETATM    4  C4  UNL     1     -32.181   7.728   2.638  1.00 20.00     0.033 C 
HETATM    5  C5  UNL     1     -33.628   7.992   5.229  1.00 20.00     0.024 C 
HETATM    6  N6  UNL     1     -33.120   5.525   3.180  1.00 20.00    -0.370 N 
HETATM    7  S7  UNL     1     -33.935   3.207   4.279  1.00 20.00    -0.053 SA
HETATM    8  S8  UNL     1     -35.273   5.926   4.513  1.00 20.00    -0.094 SA
HETATM    9  H17 UNL     1     -32.239   5.113   2.900  1.00 20.00     0.161 HD
ENDROOT
TORSDOF 0
