REMARK  0 active torsions:
REMARK  status: ('A' for Active; 'I' for Inactive)
ROOT
HETATM    1  C1  UNL     1     -34.570   5.936   3.671  1.00 20.00     0.134 C 
HETATM    2  C2  UNL     1     -33.392   5.240   3.016  1.00 20.00     0.109 C 
HETATM    3  C3  UNL     1     -33.223   7.854   4.513  1.00 20.00     0.044 C 
HETATM    4  C4  UNL     1     -32.763   6.110   1.918  1.00 20.00     0.280 C 
HETATM    5  C5  UNL     1     -32.144   7.928   3.427  1.00 20.00     0.273 C 
HETATM    6  C6  UNL     1     -34.211   7.976   2.357  1.00 20.00     0.284 C 
HETATM    7  C7  UNL     1     -34.482   7.451   3.754  1.00 20.00     0.085 C 
HETATM    8  N8  UNL     1     -32.805   7.570   2.154  1.00 20.00     0.089 N 
HETATM    9  O9  UNL     1     -35.502   5.308   4.168  1.00 20.00    -0.297 OA
ENDROOT
TORSDOF 0
