REMARK  1 active torsions:
REMARK  status: ('A' for Active; 'I' for Inactive)
REMARK    1  A    between atoms: C3_3  and  C4_4 
ROOT
HETATM    1  C1  UNL     1     -33.174   7.703   3.577  1.00 20.00     0.065 A 
HETATM    2  C2  UNL     1     -34.212   7.513   4.451  1.00 20.00     0.172 A 
HETATM    3  C3  UNL     1     -33.317   6.653   2.654  1.00 20.00     0.169 A 
HETATM    4  N5  UNL     1     -34.363   5.871   2.934  1.00 20.00    -0.124 NA
HETATM    5  O6  UNL     1     -34.929   6.422   4.077  1.00 20.00    -0.225 OA
ENDROOT
BRANCH   3   6
HETATM    6  C4  UNL     1     -32.472   6.359   1.486  1.00 20.00     0.436 C 
HETATM    7  F7  UNL     1     -31.429   7.235   1.305  1.00 20.00    -0.164 F 
HETATM    8  F8  UNL     1     -31.873   5.123   1.516  1.00 20.00    -0.164 F 
HETATM    9  F9  UNL     1     -33.158   6.385   0.297  1.00 20.00    -0.164 F 
ENDBRANCH   3   6
TORSDOF 1
