REMARK  2 active torsions:
REMARK  status: ('A' for Active; 'I' for Inactive)
REMARK    1  A    between atoms: C3_3  and  C7_7 
REMARK    2  A    between atoms: C3_3  and  O11_11 
ROOT
HETATM    1  C1  UNL     1     -33.328   6.746   2.603  1.00 20.00    -0.070 C 
HETATM    2  C2  UNL     1     -32.423   6.698   1.617  1.00 20.00    -0.027 C 
HETATM    3  C4  UNL     1     -33.602   7.967   3.434  1.00 20.00     0.034 C 
HETATM    4  C5  UNL     1     -34.414   7.420   4.601  1.00 20.00     0.005 C 
HETATM    5  C6  UNL     1     -35.193   6.254   4.001  1.00 20.00     0.019 C 
HETATM    6  C7  UNL     1     -34.218   5.608   3.019  1.00 20.00     0.114 C 
HETATM    7  C8  UNL     1     -31.578   7.855   1.205  1.00 20.00     0.036 C 
ENDROOT
BRANCH   6   8
HETATM    8  C3  UNL     1     -33.387   4.554   3.688  1.00 20.00     0.266 C 
HETATM    9  O10 UNL     1     -32.170   4.613   3.805  1.00 20.00    -0.265 OA
BRANCH   8  10
HETATM   10  O11 UNL     1     -34.194   3.547   4.129  1.00 20.00    -0.326 OA
HETATM   11  C9  UNL     1     -33.526   2.468   4.790  1.00 20.00     0.213 C 
ENDBRANCH   8  10
ENDBRANCH   6   8
TORSDOF 2
