REMARK  2 active torsions:
REMARK  status: ('A' for Active; 'I' for Inactive)
REMARK    1  A    between atoms: C3_3  and  C7_7 
REMARK    2  A    between atoms: C3_3  and  O11_11 
ROOT
HETATM    1  C1  UNL     1     -32.841   7.028   2.705  1.00 20.00    -0.070 C 
HETATM    2  C2  UNL     1     -33.433   7.861   3.570  1.00 20.00    -0.027 C 
HETATM    3  C4  UNL     1     -33.276   5.608   2.472  1.00 20.00     0.034 C 
HETATM    4  C5  UNL     1     -32.554   5.229   1.186  1.00 20.00     0.005 C 
HETATM    5  C6  UNL     1     -31.254   6.026   1.238  1.00 20.00     0.019 C 
HETATM    6  C7  UNL     1     -31.652   7.367   1.850  1.00 20.00     0.114 C 
HETATM    7  C8  UNL     1     -34.603   7.489   4.417  1.00 20.00     0.036 C 
ENDROOT
BRANCH   6   8
HETATM    8  C3  UNL     1     -32.070   8.347   0.795  1.00 20.00     0.266 C 
HETATM    9  O10 UNL     1     -32.036   8.117  -0.406  1.00 20.00    -0.265 OA
BRANCH   8  10
HETATM   10  O11 UNL     1     -32.484   9.504   1.386  1.00 20.00    -0.326 OA
HETATM   11  C9  UNL     1     -32.913  10.533   0.488  1.00 20.00     0.213 C 
ENDBRANCH   8  10
ENDBRANCH   6   8
TORSDOF 2
