REMARK  3 active torsions:
REMARK  status: ('A' for Active; 'I' for Inactive)
REMARK    1  A    between atoms: C2_2  and  C9_9 
REMARK    2  A    between atoms: C7_7  and  C9_9 
REMARK    3  A    between atoms: C8_8  and  O10_10 
ROOT
HETATM    1  C3  UNL     1     -34.000   5.150   2.263  1.00 20.00     0.003 C 
HETATM    2  C4  UNL     1     -32.863   5.744   1.433  1.00 20.00     0.005 C 
HETATM    3  C5  UNL     1     -34.037   5.739   3.668  1.00 20.00     0.032 C 
HETATM    4  C6  UNL     1     -32.965   7.861   2.808  1.00 20.00     0.036 C 
HETATM    5  C7  UNL     1     -32.930   7.277   1.390  1.00 20.00    -0.009 C 
HETATM    6  C8  UNL     1     -34.104   7.265   3.635  1.00 20.00     0.118 C 
ENDROOT
BRANCH   5   7
HETATM    7  C9  UNL     1     -31.754   7.847   0.600  1.00 20.00     0.031 C 
BRANCH   7   8
HETATM    8  C2  UNL     1     -31.830   9.339   0.518  1.00 20.00    -0.037 C 
HETATM    9  C1  UNL     1     -32.430  10.002  -0.477  1.00 20.00     0.007 C 
ENDBRANCH   7   8
ENDBRANCH   5   7
BRANCH   6  10
HETATM   10  O10 UNL     1     -34.047   7.773   4.964  1.00 20.00    -0.396 OA
HETATM   11  H26 UNL     1     -34.810   7.405   5.435  1.00 20.00     0.210 HD
ENDBRANCH   6  10
TORSDOF 3
