REMARK  5 active torsions:
REMARK  status: ('A' for Active; 'I' for Inactive)
REMARK    1  A    between atoms: C2_2  and  C3_3 
REMARK    2  A    between atoms: C2_2  and  C4_4 
REMARK    3  A    between atoms: C3_3  and  C5_5 
REMARK    4  A    between atoms: C4_4  and  C6_6 
REMARK    5  A    between atoms: C5_5  and  S7_7 
ROOT
HETATM    1  C2  UNL     1     -31.652   7.870   1.541  1.00 20.00     0.002 C 
ENDROOT
BRANCH   1   2
HETATM    2  C3  UNL     1     -31.868   6.437   2.040  1.00 20.00     0.010 C 
BRANCH   2   3
HETATM    3  C5  UNL     1     -33.336   6.086   2.280  1.00 20.00     0.073 C 
BRANCH   3   4
HETATM    4  S7  UNL     1     -34.128   7.155   3.518  1.00 20.00    -0.173 SA
HETATM    5  C1  UNL     1     -35.769   6.399   3.503  1.00 20.00     0.089 C 
ENDBRANCH   3   4
ENDBRANCH   2   3
ENDBRANCH   1   2
BRANCH   1   6
HETATM    6  C4  UNL     1     -32.289   8.079   0.166  1.00 20.00     0.015 C 
BRANCH   6   7
HETATM    7  C6  UNL     1     -32.103   9.512  -0.313  1.00 20.00     0.114 C 
HETATM    8 CL8  UNL     1     -32.873  10.649   0.819  1.00 20.00    -0.130 Cl
ENDBRANCH   6   7
ENDBRANCH   1   6
TORSDOF 5
