REMARK  1 active torsions:
REMARK  status: ('A' for Active; 'I' for Inactive)
REMARK    1  A    between atoms: C4_4  and  C7_7 
ROOT
HETATM    1  C1  UNL     1     -34.584   7.269   4.169  1.00 20.00     0.035 A 
HETATM    2  C2  UNL     1     -33.419   7.541   3.574  1.00 20.00    -0.008 A 
HETATM    3  C3  UNL     1     -34.981   5.867   3.996  1.00 20.00     0.085 A 
HETATM    4  C4  UNL     1     -32.713   6.437   2.851  1.00 20.00     0.080 A 
HETATM    5  N8  UNL     1     -36.049   5.315   4.452  1.00 20.00    -0.293 NA
HETATM    6  S9  UNL     1     -33.796   4.981   3.061  1.00 20.00    -0.102 SA
HETATM    7  H20 UNL     1     -36.600   6.010   4.969  1.00 20.00     0.187 HD
ENDROOT
BRANCH   4   8
HETATM    8  C7  UNL     1     -32.518   6.744   1.373  1.00 20.00    -0.005 C 
HETATM    9  C5  UNL     1     -31.716   8.033   1.188  1.00 20.00     0.011 C 
HETATM   10  C6  UNL     1     -31.826   5.580   0.664  1.00 20.00     0.011 C 
ENDBRANCH   4   8
TORSDOF 1
