REMARK  0 active torsions:
REMARK  status: ('A' for Active; 'I' for Inactive)
ROOT
HETATM    1  C1  UNL     1     -34.246   4.592   4.122  1.00 20.00     0.222 C 
HETATM    2  C2  UNL     1     -32.553   6.236   1.508  1.00 20.00     0.001 C 
HETATM    3  C3  UNL     1     -32.294   5.223   2.621  1.00 20.00     0.014 C 
HETATM    4  C4  UNL     1     -33.978   6.703   1.752  1.00 20.00     0.007 C 
HETATM    5  C5  UNL     1     -35.415   6.632   3.870  1.00 20.00     0.128 C 
HETATM    6  C6  UNL     1     -33.204   5.639   3.777  1.00 20.00     0.083 C 
HETATM    7  C7  UNL     1     -34.036   6.828   3.273  1.00 20.00     0.016 C 
HETATM    8  N8  UNL     1     -35.482   5.225   4.152  1.00 20.00    -0.360 N 
HETATM    9  O9  UNL     1     -34.020   3.414   4.353  1.00 20.00    -0.273 OA
HETATM   10  H20 UNL     1     -36.351   4.739   4.354  1.00 20.00     0.162 HD
ENDROOT
TORSDOF 0
