REMARK  0 active torsions:
REMARK  status: ('A' for Active; 'I' for Inactive)
ROOT
HETATM    1  C1  UNL     1     -32.607   5.462   1.505  1.00 20.00     0.005 C 
HETATM    2  C2  UNL     1     -31.586   6.504   1.952  1.00 20.00     0.033 C 
HETATM    3  C3  UNL     1     -33.998   5.678   2.095  1.00 20.00     0.033 C 
HETATM    4  C4  UNL     1     -32.196   7.869   2.328  1.00 20.00     0.052 C 
HETATM    5  C5  UNL     1     -34.001   6.469   3.417  1.00 20.00     0.052 C 
HETATM    6  C6  UNL     1     -32.713   8.594   1.069  1.00 20.00     0.040 C 
HETATM    7  C7  UNL     1     -31.077   8.743   2.934  1.00 20.00     0.040 C 
HETATM    8  C8  UNL     1     -33.385   5.636   4.558  1.00 20.00     0.040 C 
HETATM    9  C9  UNL     1     -35.464   6.777   3.793  1.00 20.00     0.040 C 
HETATM   10  N10 UNL     1     -33.324   7.766   3.270  1.00 20.00    -0.234 N 
HETATM   11  F11 UNL     1     -33.108   8.386   4.476  1.00 20.00    -0.103 F 
ENDROOT
TORSDOF 0
