REMARK  0 active torsions:
REMARK  status: ('A' for Active; 'I' for Inactive)
ROOT
HETATM    1  C1  UNL     1     -34.549   6.556   3.544  1.00 20.00     0.124 C 
HETATM    2  C2  UNL     1     -32.842   7.905   2.467  1.00 20.00     0.024 C 
HETATM    3  C3  UNL     1     -33.448   6.741   2.678  1.00 20.00     0.145 C 
HETATM    4  C4  UNL     1     -31.709   7.688   1.542  1.00 20.00     0.057 C 
HETATM    5  C5  UNL     1     -31.965   6.253   1.095  1.00 20.00     0.180 C 
HETATM    6  N6  UNL     1     -35.454   6.404   4.255  1.00 20.00    -0.189 NA
HETATM    7  O7  UNL     1     -32.907   5.652   2.007  1.00 20.00    -0.341 OA
ENDROOT
TORSDOF 0
