REMARK  0 active torsions:
REMARK  status: ('A' for Active; 'I' for Inactive)
ROOT
HETATM    1  C1  UNL     1     -34.460   7.904   3.746  1.00 20.00     0.047 A 
HETATM    2  C2  UNL     1     -35.336   6.800   3.767  1.00 20.00     0.141 A 
HETATM    3  C3  UNL     1     -33.379   7.477   3.009  1.00 20.00     0.032 A 
HETATM    4  C4  UNL     1     -32.101   8.132   2.621  1.00 20.00     0.059 C 
HETATM    5  C5  UNL     1     -31.426   7.407   1.452  1.00 20.00     0.008 C 
HETATM    6  C6  UNL     1     -31.415   5.893   1.679  1.00 20.00     0.022 C 
HETATM    7  C7  UNL     1     -32.838   5.349   1.812  1.00 20.00     0.151 C 
HETATM    8  N8  UNL     1     -34.858   5.747   3.097  1.00 20.00    -0.185 NA
HETATM    9  N9  UNL     1     -33.666   6.186   2.656  1.00 20.00    -0.274 N 
ENDROOT
TORSDOF 0
