REMARK  2 active torsions:
REMARK  status: ('A' for Active; 'I' for Inactive)
REMARK    1  A    between atoms: C1_1  and  C3_3 
REMARK    2  A    between atoms: C1_1  and  C8_8 
ROOT
HETATM    1  C1  UNL     1     -33.630   7.275   3.838  1.00 20.00     0.134 C 
HETATM    2  O9  UNL     1     -32.985   7.958   4.634  1.00 20.00    -0.297 OA
ENDROOT
BRANCH   1   3
HETATM    3  C3  UNL     1     -33.521   7.515   2.353  1.00 20.00     0.060 A 
HETATM    4  C2  UNL     1     -32.555   6.686   1.580  1.00 20.00     0.017 A 
HETATM    5  C4  UNL     1     -32.292   8.149   1.798  1.00 20.00    -0.007 A 
HETATM    6  C5  UNL     1     -31.139   8.583   2.637  1.00 20.00     0.011 C 
ENDBRANCH   1   3
BRANCH   1   7
HETATM    7  C8  UNL     1     -34.542   6.138   4.287  1.00 20.00     0.048 C 
HETATM    8  C6  UNL     1     -35.971   6.405   3.829  1.00 20.00     0.017 C 
HETATM    9  C7  UNL     1     -34.045   4.796   3.757  1.00 20.00     0.017 C 
ENDBRANCH   1   7
TORSDOF 2
