REMARK  0 active torsions:
REMARK  status: ('A' for Active; 'I' for Inactive)
ROOT
HETATM    1  C1  UNL     1     -33.721   5.995   3.338  1.00 20.00    -0.013 C 
HETATM    2  C2  UNL     1     -33.183   6.313   2.160  1.00 20.00    -0.066 C 
HETATM    3  C3  UNL     1     -33.768   7.279   4.071  1.00 20.00     0.156 C 
HETATM    4  C4  UNL     1     -32.572   5.470   1.094  1.00 20.00     0.036 C 
HETATM    5  C5  UNL     1     -33.074   8.386   3.313  1.00 20.00     0.093 C 
HETATM    6  C6  UNL     1     -31.624   6.461   0.396  1.00 20.00     0.009 C 
HETATM    7  C7  UNL     1     -32.893   7.763   1.941  1.00 20.00     0.026 C 
HETATM    8  C8  UNL     1     -31.489   7.660   1.357  1.00 20.00    -0.010 C 
HETATM    9  C9  UNL     1     -34.070   4.689   3.935  1.00 20.00     0.052 C 
HETATM   10  C10 UNL     1     -31.037   8.933   0.661  1.00 20.00     0.010 C 
HETATM   11  O11 UNL     1     -34.264   7.406   5.181  1.00 20.00    -0.293 OA
ENDROOT
TORSDOF 0
