REMARK  0 active torsions:
REMARK  status: ('A' for Active; 'I' for Inactive)
ROOT
HETATM    1  C1  UNL     1     -33.341   7.367   3.226  1.00 20.00     0.102 C 
HETATM    2  C2  UNL     1     -32.877   5.281   1.996  1.00 20.00     0.068 C 
HETATM    3  C3  UNL     1     -31.388   7.289   1.722  1.00 20.00     0.068 C 
HETATM    4  C4  UNL     1     -32.806   6.801   1.980  1.00 20.00     0.183 C 
HETATM    5  N5  UNL     1     -33.765   7.815   4.209  1.00 20.00    -0.194 NA
HETATM    6  F6  UNL     1     -33.592   7.243   0.956  1.00 20.00    -0.228 F 
ENDROOT
TORSDOF 0
