REMARK  0 active torsions:
REMARK  status: ('A' for Active; 'I' for Inactive)
ROOT
HETATM    1  C1  UNL     1     -34.397   4.698   4.175  1.00 20.00     0.223 A 
HETATM    2  C2  UNL     1     -33.861   6.013   3.570  1.00 20.00     0.096 A 
HETATM    3  C3  UNL     1     -35.215   6.630   4.043  1.00 20.00     0.093 A 
HETATM    4  C4  UNL     1     -33.532   5.961   2.090  1.00 20.00     0.022 C 
HETATM    5  C5  UNL     1     -36.246   7.089   3.033  1.00 20.00     0.033 C 
HETATM    6  N6  UNL     1     -35.546   5.309   4.569  1.00 20.00    -0.356 N 
HETATM    7  O7  UNL     1     -34.005   3.559   4.281  1.00 20.00    -0.273 OA
HETATM    8  H16 UNL     1     -36.352   4.934   5.051  1.00 20.00     0.162 HD
ENDROOT
TORSDOF 0
