REMARK  0 active torsions:
REMARK  status: ('A' for Active; 'I' for Inactive)
ROOT
HETATM    1  C1  UNL     1     -32.948   6.649   1.466  1.00 20.00     0.026 C 
HETATM    2  C2  UNL     1     -33.308   8.604   3.065  1.00 20.00     0.026 C 
HETATM    3  C3  UNL     1     -33.053   5.597   2.564  1.00 20.00     0.075 C 
HETATM    4  C4  UNL     1     -33.443   7.709   4.292  1.00 20.00     0.075 C 
HETATM    5  C5  UNL     1     -32.425   7.987   1.984  1.00 20.00     0.059 C 
HETATM    6  S6  UNL     1     -34.192   6.107   3.883  1.00 20.00    -0.169 SA
HETATM    7 BR7  UNL     1     -32.308   9.240   0.479  1.00 20.00    -0.091 Br
ENDROOT
TORSDOF 0
