REMARK  0 active torsions:
REMARK  status: ('A' for Active; 'I' for Inactive)
ROOT
HETATM    1  C1  UNL     1     -33.634   6.631   2.890  1.00 20.00     0.223 A 
HETATM    2  C2  UNL     1     -32.855   6.421   1.574  1.00 20.00     0.096 A 
HETATM    3  C3  UNL     1     -32.244   7.824   1.862  1.00 20.00     0.093 A 
HETATM    4  C4  UNL     1     -31.891   5.251   1.563  1.00 20.00     0.022 C 
HETATM    5  C5  UNL     1     -32.575   8.934   0.887  1.00 20.00     0.033 C 
HETATM    6  N6  UNL     1     -33.102   7.874   3.042  1.00 20.00    -0.356 N 
HETATM    7  O7  UNL     1     -34.411   5.992   3.560  1.00 20.00    -0.273 OA
HETATM    8  H16 UNL     1     -33.228   8.550   3.782  1.00 20.00     0.162 HD
ENDROOT
TORSDOF 0
