REMARK  2 active torsions:
REMARK  status: ('A' for Active; 'I' for Inactive)
REMARK    1  A    between atoms: C1_1  and  C3_3 
REMARK    2  A    between atoms: C5_5  and  O10_10 
ROOT
HETATM    1  C2  UNL     1     -33.531   8.267   1.842  1.00 20.00     0.074 C 
HETATM    2  C3  UNL     1     -33.220   7.182   2.844  1.00 20.00     0.080 C 
HETATM    3  C4  UNL     1     -32.109   6.402   2.147  1.00 20.00     0.131 C 
HETATM    4  C5  UNL     1     -32.161   8.576   1.269  1.00 20.00     0.260 C 
HETATM    5  C6  UNL     1     -32.566   5.267   1.236  1.00 20.00     0.040 C 
HETATM    6  O9  UNL     1     -31.410   7.356   1.322  1.00 20.00    -0.356 OA
ENDROOT
BRANCH   2   7
HETATM    7  C1  UNL     1     -34.421   6.370   3.211  1.00 20.00     0.238 C 
HETATM    8  O8  UNL     1     -34.383   5.418   3.983  1.00 20.00    -0.306 OA
ENDBRANCH   2   7
BRANCH   4   9
HETATM    9  O10 UNL     1     -32.296   9.065  -0.055  1.00 20.00    -0.366 OA
HETATM   10  C7  UNL     1     -32.656  10.439  -0.068  1.00 20.00     0.204 C 
ENDBRANCH   4   9
TORSDOF 2
