REMARK  2 active torsions:
REMARK  status: ('A' for Active; 'I' for Inactive)
REMARK    1  A    between atoms: C2_2  and  O12_12 
REMARK    2  A    between atoms: C7_7  and  O12_12 
ROOT
HETATM    1  C3  UNL     1     -33.083   7.742   3.461  1.00 20.00     0.036 C 
HETATM    2  C4  UNL     1     -33.894   5.552   2.500  1.00 20.00     0.013 C 
HETATM    3  C5  UNL     1     -31.843   6.682   1.518  1.00 20.00     0.041 C 
HETATM    4  C6  UNL     1     -34.314   6.880   3.149  1.00 20.00    -0.015 C 
HETATM    5  C7  UNL     1     -32.216   7.987   2.226  1.00 20.00     0.128 C 
HETATM    6  C8  UNL     1     -33.033   5.731   1.229  1.00 20.00    -0.045 C 
HETATM    7  C9  UNL     1     -35.118   6.619   4.424  1.00 20.00     0.010 C 
HETATM    8  C10 UNL     1     -32.470   4.356   0.813  1.00 20.00     0.015 C 
HETATM    9  C11 UNL     1     -33.894   6.245   0.059  1.00 20.00     0.015 C 
ENDROOT
BRANCH   5  10
HETATM   10  O12 UNL     1     -32.886   8.854   1.317  1.00 20.00    -0.359 OA
BRANCH  10  11
HETATM   11  C2  UNL     1     -32.095   9.486   0.461  1.00 20.00     0.125 C 
HETATM   12  C1  UNL     1     -32.447   9.864  -0.770  1.00 20.00     0.037 C 
ENDBRANCH  10  11
ENDBRANCH   5  10
TORSDOF 2
