REMARK  0 active torsions:
REMARK  status: ('A' for Active; 'I' for Inactive)
ROOT
HETATM    1  C1  UNL     1     -33.814   7.343   3.820  1.00 20.00     0.223 A 
HETATM    2  C2  UNL     1     -34.531   6.109   3.233  1.00 20.00     0.096 A 
HETATM    3  C3  UNL     1     -33.565   6.288   2.020  1.00 20.00     0.093 A 
HETATM    4  C4  UNL     1     -34.456   4.852   4.078  1.00 20.00     0.022 C 
HETATM    5  C5  UNL     1     -32.494   5.257   1.730  1.00 20.00     0.033 C 
HETATM    6  N6  UNL     1     -33.011   7.438   2.727  1.00 20.00    -0.356 N 
HETATM    7  O7  UNL     1     -33.888   7.999   4.833  1.00 20.00    -0.273 OA
HETATM    8  H16 UNL     1     -32.277   8.099   2.513  1.00 20.00     0.162 HD
ENDROOT
TORSDOF 0
