REMARK  0 active torsions:
REMARK  status: ('A' for Active; 'I' for Inactive)
ROOT
HETATM    1  C1  UNL     1     -31.625   8.608  -0.093  1.00 20.00    -0.030 C 
HETATM    2  C2  UNL     1     -31.282   7.418   0.421  1.00 20.00    -0.023 C 
HETATM    3  C3  UNL     1     -33.553   6.681   2.851  1.00 20.00     0.150 C 
HETATM    4  C4  UNL     1     -32.540   9.587   0.586  1.00 20.00     0.027 C 
HETATM    5  C5  UNL     1     -33.536   8.893   1.513  1.00 20.00     0.016 C 
HETATM    6  C6  UNL     1     -31.734   7.024   1.780  1.00 20.00     0.045 C 
HETATM    7  C7  UNL     1     -32.783   7.962   2.454  1.00 20.00     0.067 C 
HETATM    8  C8  UNL     1     -32.703   5.806   1.896  1.00 20.00     0.160 C 
HETATM    9  O9  UNL     1     -34.478   6.456   3.602  1.00 20.00    -0.296 OA
HETATM   10 CL10 UNL     1     -33.627   5.207   0.485  1.00 20.00    -0.116 Cl
ENDROOT
TORSDOF 0
