REMARK  2 active torsions:
REMARK  status: ('A' for Active; 'I' for Inactive)
REMARK    1  A    between atoms: C2_2  and  O12_12 
REMARK    2  A    between atoms: C7_7  and  O12_12 
ROOT
HETATM    1  C3  UNL     1     -31.561   6.141   1.970  1.00 20.00     0.036 C 
HETATM    2  C4  UNL     1     -33.693   5.516   3.173  1.00 20.00     0.013 C 
HETATM    3  C5  UNL     1     -32.799   7.885   3.334  1.00 20.00     0.041 C 
HETATM    4  C6  UNL     1     -32.826   5.273   1.927  1.00 20.00    -0.015 C 
HETATM    5  C7  UNL     1     -31.877   7.625   2.139  1.00 20.00     0.128 C 
HETATM    6  C8  UNL     1     -34.070   7.000   3.384  1.00 20.00    -0.045 C 
HETATM    7  C9  UNL     1     -32.454   3.793   1.817  1.00 20.00     0.010 C 
HETATM    8  C10 UNL     1     -34.719   7.153   4.775  1.00 20.00     0.015 C 
HETATM    9  C11 UNL     1     -35.111   7.448   2.340  1.00 20.00     0.015 C 
ENDROOT
BRANCH   5  10
HETATM   10  O12 UNL     1     -32.455   8.118   0.935  1.00 20.00    -0.359 OA
BRANCH  10  11
HETATM   11  C2  UNL     1     -32.347   9.428   0.758  1.00 20.00     0.125 C 
HETATM   12  C1  UNL     1     -33.221  10.184   0.090  1.00 20.00     0.037 C 
ENDBRANCH  10  11
ENDBRANCH   5  10
TORSDOF 2
