REMARK  1 active torsions:
REMARK  status: ('A' for Active; 'I' for Inactive)
REMARK    1  A    between atoms: C8_8  and  C11_11 
ROOT
HETATM    1  C1  UNL     1     -32.505   8.868   0.772  1.00 20.00     0.136 C 
HETATM    2  C2  UNL     1     -31.669   6.570   0.701  1.00 20.00     0.017 C 
HETATM    3  C3  UNL     1     -34.270   6.918   0.900  1.00 20.00     0.018 C 
HETATM    4  C4  UNL     1     -31.609   7.855   2.700  1.00 20.00     0.023 C 
HETATM    5  C5  UNL     1     -31.334   7.989   1.196  1.00 20.00     0.057 C 
HETATM    6  C6  UNL     1     -33.741   8.225   1.550  1.00 20.00     0.065 C 
HETATM    7  C7  UNL     1     -32.983   6.234   1.455  1.00 20.00    -0.003 C 
HETATM    8  C8  UNL     1     -33.037   7.287   2.615  1.00 20.00    -0.023 C 
HETATM    9  O12 UNL     1     -32.438   9.807  -0.003  1.00 20.00    -0.297 OA
ENDROOT
BRANCH   8  10
HETATM   10  C11 UNL     1     -33.703   6.969   3.926  1.00 20.00    -0.013 C 
HETATM   11  C9  UNL     1     -33.796   8.211   4.822  1.00 20.00     0.010 C 
HETATM   12  C10 UNL     1     -35.104   6.378   3.713  1.00 20.00     0.010 C 
ENDBRANCH   8  10
TORSDOF 1
