REMARK  2 active torsions:
REMARK  status: ('A' for Active; 'I' for Inactive)
REMARK    1  A    between atoms: C2_2  and  C5_5 
REMARK    2  A    between atoms: C5_5  and  O6_6 
ROOT
HETATM    1  C1  UNL     1     -32.835   5.711   3.459  1.00 20.00     0.097 A 
HETATM    2  C2  UNL     1     -34.095   6.560   3.513  1.00 20.00     0.049 A 
HETATM    3  C3  UNL     1     -33.174   6.627   2.339  1.00 20.00     0.254 A 
HETATM    4  C4  UNL     1     -34.119   7.726   4.461  1.00 20.00     0.024 C 
HETATM    5  F7  UNL     1     -32.404   7.744   2.100  1.00 20.00    -0.205 F 
HETATM    6  F8  UNL     1     -33.542   6.117   1.114  1.00 20.00    -0.205 F 
ENDROOT
BRANCH   2   7
HETATM    7  C5  UNL     1     -35.418   5.869   3.335  1.00 20.00     0.179 C 
BRANCH   7   8
HETATM    8  O6  UNL     1     -35.794   5.245   4.557  1.00 20.00    -0.400 OA
HETATM    9  H16 UNL     1     -36.649   4.813   4.399  1.00 20.00     0.209 HD
ENDBRANCH   7   8
ENDBRANCH   2   7
TORSDOF 2
