REMARK  1 active torsions:
REMARK  status: ('A' for Active; 'I' for Inactive)
REMARK    1  A    between atoms: C1_1  and  C3_3 
ROOT
HETATM    1  C2  UNL     1     -34.709   7.052   2.149  1.00 20.00     0.084 A 
HETATM    2  C3  UNL     1     -33.232   6.724   2.233  1.00 20.00     0.087 A 
HETATM    3  C4  UNL     1     -34.106   6.713   3.480  1.00 20.00     0.195 A 
HETATM    4  C5  UNL     1     -32.783   5.423   1.616  1.00 20.00     0.029 C 
HETATM    5  F7  UNL     1     -33.944   7.787   4.352  1.00 20.00    -0.224 F 
HETATM    6 CL9  UNL     1     -34.567   5.205   4.250  1.00 20.00    -0.081 Cl
ENDROOT
BRANCH   2   7
HETATM    7  C1  UNL     1     -32.285   7.859   2.113  1.00 20.00     0.231 C 
HETATM    8  O6  UNL     1     -31.497   8.139   3.011  1.00 20.00    -0.279 OA
HETATM    9 CL8  UNL     1     -32.448   8.689   0.595  1.00 20.00    -0.043 Cl
ENDBRANCH   2   7
TORSDOF 1
