REMARK  2 active torsions:
REMARK  status: ('A' for Active; 'I' for Inactive)
REMARK    1  A    between atoms: C2_2  and  C5_5 
REMARK    2  A    between atoms: C2_2  and  O9_9 
ROOT
HETATM    1  C1  UNL     1     -32.559   6.280   1.501  1.00 20.00     0.140 C 
HETATM    2  C3  UNL     1     -32.157   7.573   0.773  1.00 20.00     0.080 C 
HETATM    3  C4  UNL     1     -32.553   8.335   2.058  1.00 20.00     0.030 C 
HETATM    4  C5  UNL     1     -32.669   7.010   2.856  1.00 20.00     0.155 C 
HETATM    5  O7  UNL     1     -32.724   5.134   1.141  1.00 20.00    -0.297 OA
ENDROOT
BRANCH   4   6
HETATM    6  C2  UNL     1     -33.993   6.671   3.541  1.00 20.00     0.269 C 
HETATM    7  O8  UNL     1     -34.885   7.483   3.748  1.00 20.00    -0.264 OA
BRANCH   6   8
HETATM    8  O9  UNL     1     -34.010   5.348   3.872  1.00 20.00    -0.326 OA
HETATM    9  C6  UNL     1     -35.199   4.893   4.524  1.00 20.00     0.213 C 
ENDBRANCH   6   8
ENDBRANCH   4   6
TORSDOF 2
