REMARK  0 active torsions:
REMARK  status: ('A' for Active; 'I' for Inactive)
ROOT
HETATM    1  C1  UNL     1     -32.270   9.324   0.258  1.00 20.00     0.015 C 
HETATM    2  C2  UNL     1     -32.324   8.397   1.019  1.00 20.00    -0.083 C 
HETATM    3  C3  UNL     1     -33.030   6.047   1.335  1.00 20.00     0.216 C 
HETATM    4  C4  UNL     1     -32.389   7.270   1.946  1.00 20.00     0.226 C 
HETATM    5  C5  UNL     1     -33.812   6.315   3.446  1.00 20.00     0.158 C 
HETATM    6  C6  UNL     1     -35.325   6.469   3.548  1.00 20.00     0.078 C 
HETATM    7  C7  UNL     1     -33.208   5.893   4.779  1.00 20.00     0.078 C 
HETATM    8  O8  UNL     1     -33.502   5.314   2.465  1.00 20.00    -0.352 OA
HETATM    9  O9  UNL     1     -33.249   7.575   3.049  1.00 20.00    -0.336 OA
ENDROOT
TORSDOF 0
