REMARK  1 active torsions:
REMARK  status: ('A' for Active; 'I' for Inactive)
REMARK    1  A    between atoms: C7_7  and  C11_11 
ROOT
HETATM    1  C1  UNL     1     -32.090   9.545   0.452  1.00 20.00     0.063 C 
HETATM    2  C11 UNL     1     -31.427   8.848   1.565  1.00 20.00     0.162 C 
HETATM    3  N12 UNL     1     -32.611  10.095  -0.427  1.00 20.00    -0.197 NA
ENDROOT
BRANCH   2   4
HETATM    4  C7  UNL     1     -32.168   7.602   1.918  1.00 20.00    -0.045 A 
HETATM    5  C3  UNL     1     -31.840   6.394   1.281  1.00 20.00     0.009 A 
HETATM    6  C2  UNL     1     -32.524   5.217   1.591  1.00 20.00     0.008 A 
HETATM    7  C5  UNL     1     -33.522   5.271   2.550  1.00 20.00    -0.052 A 
HETATM    8  C6  UNL     1     -33.849   6.475   3.185  1.00 20.00    -0.051 A 
HETATM    9  C8  UNL     1     -34.410   4.162   3.019  1.00 20.00     0.039 C 
HETATM   10  C4  UNL     1     -33.185   7.649   2.875  1.00 20.00     0.015 A 
HETATM   11  C9  UNL     1     -34.988   6.283   4.136  1.00 20.00     0.039 C 
HETATM   12  C10 UNL     1     -34.967   4.758   4.321  1.00 20.00     0.009 C 
ENDBRANCH   2   4
TORSDOF 1
