REMARK  1 active torsions:
REMARK  status: ('A' for Active; 'I' for Inactive)
REMARK    1  A    between atoms: C1_1  and  C7_7 
ROOT
HETATM    1  C2  UNL     1     -32.530   9.565   1.046  1.00 20.00     0.006 C 
HETATM    2  C3  UNL     1     -32.693   9.372   2.554  1.00 20.00     0.017 C 
HETATM    3  C4  UNL     1     -31.866   8.287   0.550  1.00 20.00     0.069 C 
HETATM    4  C5  UNL     1     -33.708   5.624   0.419  1.00 20.00     0.197 C 
HETATM    5  C6  UNL     1     -32.605   4.969   1.205  1.00 20.00     0.197 C 
HETATM    6  C7  UNL     1     -32.456   7.881   2.825  1.00 20.00     0.109 C 
HETATM    7  C8  UNL     1     -32.471   7.211   1.447  1.00 20.00     0.173 C 
HETATM    8  O10 UNL     1     -33.807   6.919   1.010  1.00 20.00    -0.352 OA
HETATM    9  O11 UNL     1     -31.673   6.028   1.421  1.00 20.00    -0.352 OA
ENDROOT
BRANCH   6  10
HETATM   10  C1  UNL     1     -33.488   7.315   3.751  1.00 20.00     0.241 C 
HETATM   11  O9  UNL     1     -34.401   7.977   4.233  1.00 20.00    -0.306 OA
ENDBRANCH   6  10
TORSDOF 1
