REMARK  2 active torsions:
REMARK  status: ('A' for Active; 'I' for Inactive)
REMARK    1  A    between atoms: C7_7  and  C9_9 
REMARK    2  A    between atoms: C9_9  and  C10_10 
ROOT
HETATM    1  C1  UNL     1     -34.890   5.682   4.148  1.00 20.00     0.064 C 
HETATM    2  C2  UNL     1     -33.349   5.771   2.158  1.00 20.00     0.019 C 
HETATM    3  C3  UNL     1     -33.533   7.758   3.708  1.00 20.00     0.019 C 
HETATM    4  C4  UNL     1     -32.056   6.343   1.574  1.00 20.00     0.006 C 
HETATM    5  C5  UNL     1     -32.240   8.334   3.127  1.00 20.00     0.006 C 
HETATM    6  C6  UNL     1     -33.570   6.228   3.606  1.00 20.00     0.093 C 
HETATM    7  C7  UNL     1     -31.968   7.869   1.691  1.00 20.00    -0.014 C 
HETATM    8  N11 UNL     1     -35.892   5.268   4.560  1.00 20.00    -0.197 NA
ENDROOT
BRANCH   7   9
HETATM    9  C9  UNL     1     -32.884   8.526   0.740  1.00 20.00     0.004 C 
BRANCH   9  10
HETATM   10  C10 UNL     1     -32.497   9.984   0.518  1.00 20.00    -0.004 C 
HETATM   11  C8  UNL     1     -33.426  10.654  -0.482  1.00 20.00     0.005 C 
ENDBRANCH   9  10
ENDBRANCH   7   9
TORSDOF 2
