REMARK  0 active torsions:
REMARK  status: ('A' for Active; 'I' for Inactive)
ROOT
HETATM    1  C1  UNL     1     -35.922   6.251   3.993  1.00 20.00     0.015 C 
HETATM    2  C2  UNL     1     -34.775   6.400   3.673  1.00 20.00    -0.083 C 
HETATM    3  C3  UNL     1     -33.005   5.788   2.056  1.00 20.00     0.216 C 
HETATM    4  C4  UNL     1     -33.379   6.582   3.284  1.00 20.00     0.226 C 
HETATM    5  C5  UNL     1     -32.094   7.859   1.904  1.00 20.00     0.158 C 
HETATM    6  C6  UNL     1     -32.518   8.656   0.676  1.00 20.00     0.078 C 
HETATM    7  C7  UNL     1     -30.805   8.408   2.502  1.00 20.00     0.078 C 
HETATM    8  O8  UNL     1     -31.878   6.490   1.531  1.00 20.00    -0.352 OA
HETATM    9  O9  UNL     1     -33.140   7.937   2.885  1.00 20.00    -0.336 OA
ENDROOT
TORSDOF 0
