REMARK  2 active torsions:
REMARK  status: ('A' for Active; 'I' for Inactive)
REMARK       I    between atoms: C1_1  and  N6_6 
REMARK    1  A    between atoms: C4_4  and  C5_5 
REMARK    2  A    between atoms: C5_5  and  N6_6 
ROOT
HETATM    1  C1  UNL     1     -33.889   6.294   3.096  1.00 20.00     0.316 C 
HETATM    2  C3  UNL     1     -32.440   5.415   1.220  1.00 20.00     0.154 C 
HETATM    3  N6  UNL     1     -32.927   6.508   2.071  1.00 20.00    -0.343 N 
HETATM    4  O7  UNL     1     -34.370   5.183   3.332  1.00 20.00    -0.254 OA
HETATM    5 CL8  UNL     1     -34.361   7.701   4.032  1.00 20.00    -0.020 Cl
ENDROOT
BRANCH   3   6
HETATM    6  C5  UNL     1     -32.374   7.808   1.806  1.00 20.00     0.126 C 
BRANCH   6   7
HETATM    7  C4  UNL     1     -33.188   8.587   0.779  1.00 20.00     0.015 C 
HETATM    8  C2  UNL     1     -32.597   9.956   0.476  1.00 20.00     0.006 C 
ENDBRANCH   6   7
ENDBRANCH   3   6
TORSDOF 2
