REMARK  2 active torsions:
REMARK  status: ('A' for Active; 'I' for Inactive)
REMARK    1  A    between atoms: C1_1  and  C3_3 
REMARK    2  A    between atoms: C2_2  and  N9_9 
ROOT
HETATM    1  C1  UNL     1     -33.211   7.573   1.156  1.00 20.00     0.050 C 
HETATM    2  C2  UNL     1     -32.432   8.634   1.436  1.00 20.00     0.002 C 
HETATM    3  C4  UNL     1     -31.548   8.594   2.656  1.00 20.00     0.068 C 
ENDROOT
BRANCH   1   4
HETATM    4  C3  UNL     1     -33.244   6.344   2.002  1.00 20.00     0.026 C 
HETATM    5  C5  UNL     1     -32.252   5.265   1.625  1.00 20.00     0.070 C 
HETATM    6  N8  UNL     1     -34.058   6.258   3.002  1.00 20.00    -0.299 NA
HETATM    7  C6  UNL     1     -34.045   5.048   3.810  1.00 20.00     0.177 C 
ENDBRANCH   1   4
BRANCH   2   8
HETATM    8  N9  UNL     1     -32.346   9.783   0.700  1.00 20.00    -0.398 N 
HETATM    9  C7  UNL     1     -32.560   9.757  -0.720  1.00 20.00     0.146 C 
HETATM   10  H23 UNL     1     -32.133  10.614   1.195  1.00 20.00     0.158 HD
ENDBRANCH   2   8
TORSDOF 2
