REMARK  0 active torsions:
REMARK  status: ('A' for Active; 'I' for Inactive)
ROOT
HETATM    1  C1  UNL     1     -32.544   7.924   3.095  1.00 20.00     0.280 C 
HETATM    2  C2  UNL     1     -32.216   7.460   1.681  1.00 20.00     0.104 C 
HETATM    3  C3  UNL     1     -34.156   5.596   2.127  1.00 20.00     0.114 C 
HETATM    4  C4  UNL     1     -34.349   6.273   3.501  1.00 20.00     0.159 C 
HETATM    5  C5  UNL     1     -33.642   5.495   4.628  1.00 20.00     0.049 C 
HETATM    6  C6  UNL     1     -35.861   6.277   3.815  1.00 20.00     0.049 C 
HETATM    7  N7  UNL     1     -33.935   7.688   3.478  1.00 20.00     0.093 N 
HETATM    8  S8  UNL     1     -32.452   5.674   1.502  1.00 20.00    -0.165 SA
HETATM    9  H21 UNL     1     -34.100   8.104   4.394  1.00 20.00     0.316 HD
ENDROOT
TORSDOF 0
