REMARK  1 active torsions:
REMARK  status: ('A' for Active; 'I' for Inactive)
REMARK    1  A    between atoms: C3_3  and  C7_7 
REMARK       I    between atoms: C3_3  and  N8_8 
ROOT
HETATM    1  C1  UNL     1     -31.538   7.636   1.357  1.00 20.00    -0.010 A 
HETATM    2  C2  UNL     1     -32.127   6.598   0.755  1.00 20.00    -0.010 A 
HETATM    3  C3  UNL     1     -34.273   7.050   3.686  1.00 20.00     0.219 C 
HETATM    4  C4  UNL     1     -32.253   8.013   2.608  1.00 20.00     0.153 A 
HETATM    5  C5  UNL     1     -33.320   6.134   1.518  1.00 20.00     0.153 A 
HETATM    6  N8  UNL     1     -33.346   7.050   2.657  1.00 20.00    -0.345 N 
HETATM    7  O9  UNL     1     -34.257   7.845   4.628  1.00 20.00    -0.273 OA
ENDROOT
BRANCH   3   8
HETATM    8  C7  UNL     1     -35.343   5.992   3.595  1.00 20.00     0.098 C 
HETATM    9  C6  UNL     1     -34.876   4.727   4.272  1.00 20.00     0.014 C 
ENDBRANCH   3   8
TORSDOF 1
