REMARK  1 active torsions:
REMARK  status: ('A' for Active; 'I' for Inactive)
REMARK    1  A    between atoms: C2_2  and  C5_5 
ROOT
HETATM    1  C1  UNL     1     -33.941   7.792   2.663  1.00 20.00     0.153 A 
HETATM    2  C2  UNL     1     -32.574   8.190   2.137  1.00 20.00     0.096 A 
HETATM    3  C3  UNL     1     -34.252   7.647   4.110  1.00 20.00     0.042 C 
HETATM    4  C4  UNL     1     -31.434   8.469   3.064  1.00 20.00     0.050 C 
HETATM    5  O6  UNL     1     -33.017   6.824   2.148  1.00 20.00    -0.369 OA
ENDROOT
BRANCH   2   6
HETATM    6  C5  UNL     1     -32.480   8.782   0.766  1.00 20.00     0.154 C 
HETATM    7 CL7  UNL     1     -32.929  10.507   0.781  1.00 20.00    -0.127 Cl
ENDBRANCH   2   6
TORSDOF 1
