REMARK  3 active torsions:
REMARK  status: ('A' for Active; 'I' for Inactive)
REMARK    1  A    between atoms: C4_4  and  C10_10 
REMARK    2  A    between atoms: C8_8  and  C10_10 
REMARK    3  A    between atoms: C8_8  and  O11_11 
ROOT
HETATM    1  C1  UNL     1     -33.970   5.327   4.038  1.00 20.00    -0.030 C 
HETATM    2  C2  UNL     1     -32.854   4.938   3.407  1.00 20.00    -0.028 C 
HETATM    3  C5  UNL     1     -34.540   6.707   3.922  1.00 20.00     0.030 C 
HETATM    4  C6  UNL     1     -32.069   5.833   2.490  1.00 20.00     0.065 C 
HETATM    5  C7  UNL     1     -33.568   7.711   3.289  1.00 20.00     0.042 C 
HETATM    6  C8  UNL     1     -32.825   7.114   2.085  1.00 20.00     0.068 C 
ENDROOT
BRANCH   6   7
HETATM    7  C10 UNL     1     -31.865   8.139   1.479  1.00 20.00     0.038 C 
HETATM    8  C9  UNL     1     -30.751   8.480   2.468  1.00 20.00     0.017 C 
BRANCH   7   9
HETATM    9  C4  UNL     1     -32.615   9.386   1.087  1.00 20.00    -0.030 C 
HETATM   10  C3  UNL     1     -32.690   9.848  -0.167  1.00 20.00     0.007 C 
ENDBRANCH   7   9
ENDBRANCH   6   7
BRANCH   6  11
HETATM   11  O11 UNL     1     -33.795   6.786   1.083  1.00 20.00    -0.389 OA
HETATM   12  H27 UNL     1     -33.299   6.420   0.337  1.00 20.00     0.210 HD
ENDBRANCH   6  11
TORSDOF 3
