REMARK  3 active torsions:
REMARK  status: ('A' for Active; 'I' for Inactive)
REMARK    1  A    between atoms: C2_2  and  C3_3 
REMARK    2  A    between atoms: C3_3  and  N8_8 
REMARK    3  A    between atoms: C7_7  and  N8_8 
ROOT
HETATM    1  C3  UNL     1     -32.433   8.201   2.474  1.00 20.00     0.102 C 
HETATM    2  S9  UNL     1     -30.936   8.731   3.032  1.00 20.00    -0.060 SA
ENDROOT
BRANCH   1   3
HETATM    3  C2  UNL     1     -33.352   7.349   3.279  1.00 20.00    -0.034 C 
HETATM    4  C1  UNL     1     -33.675   6.147   2.782  1.00 20.00     0.021 C 
HETATM    5  C4  UNL     1     -33.866   7.892   4.574  1.00 20.00     0.050 C 
ENDBRANCH   1   3
BRANCH   1   6
HETATM    6  N8  UNL     1     -32.853   8.550   1.209  1.00 20.00    -0.377 N 
HETATM    7  H22 UNL     1     -33.761   8.199   0.920  1.00 20.00     0.160 HD
BRANCH   6   8
HETATM    8  C7  UNL     1     -32.149   9.384   0.253  1.00 20.00     0.074 C 
HETATM    9  C5  UNL     1     -33.164  10.126  -0.604  1.00 20.00     0.031 C 
HETATM   10  C6  UNL     1     -31.235   8.505  -0.589  1.00 20.00     0.031 C 
ENDBRANCH   6   8
ENDBRANCH   1   6
TORSDOF 3
