REMARK  0 active torsions:
REMARK  status: ('A' for Active; 'I' for Inactive)
ROOT
HETATM    1  C1  UNL     1     -33.536   6.290   2.789  1.00 20.00     0.282 C 
HETATM    2  C2  UNL     1     -31.564   7.000   1.559  1.00 20.00     0.286 C 
HETATM    3  C3  UNL     1     -33.842   7.659   3.390  1.00 20.00     0.104 C 
HETATM    4  C4  UNL     1     -31.595   8.470   2.000  1.00 20.00     0.071 C 
HETATM    5  C5  UNL     1     -32.313   9.375   1.000  1.00 20.00     0.023 C 
HETATM    6  C6  UNL     1     -32.785   5.043   0.875  1.00 20.00     0.310 C 
HETATM    7  N7  UNL     1     -32.894   6.378   1.469  1.00 20.00     0.086 N 
HETATM    8  S8  UNL     1     -32.335   8.633   3.662  1.00 20.00    -0.161 SA
ENDROOT
TORSDOF 0
