REMARK  0 active torsions:
REMARK  status: ('A' for Active; 'I' for Inactive)
ROOT
HETATM    1  C1  UNL     1     -32.509   7.756   1.828  1.00 20.00     0.282 C 
HETATM    2  C2  UNL     1     -33.996   5.871   2.250  1.00 20.00     0.286 C 
HETATM    3  C3  UNL     1     -32.349   8.157   3.293  1.00 20.00     0.104 C 
HETATM    4  C4  UNL     1     -34.028   6.027   3.779  1.00 20.00     0.071 C 
HETATM    5  C5  UNL     1     -35.345   5.505   4.348  1.00 20.00     0.023 C 
HETATM    6  C6  UNL     1     -31.618   5.488   1.870  1.00 20.00     0.310 C 
HETATM    7  N7  UNL     1     -32.772   6.334   1.584  1.00 20.00     0.086 N 
HETATM    8  S8  UNL     1     -33.840   7.779   4.256  1.00 20.00    -0.161 SA
ENDROOT
TORSDOF 0
