REMARK  2 active torsions:
REMARK  status: ('A' for Active; 'I' for Inactive)
REMARK    1  A    between atoms: C2_2  and  C4_4 
REMARK    2  A    between atoms: C3_3  and  C5_5 
ROOT
HETATM    1  C1  UNL     1     -32.420   6.438   0.729  1.00 20.00     0.133 A 
HETATM    2  C2  UNL     1     -32.344   7.694   1.294  1.00 20.00     0.016 A 
HETATM    3  C3  UNL     1     -33.411   6.003   2.636  1.00 20.00     0.181 A 
HETATM    4  N6  UNL     1     -33.031   5.467   1.497  1.00 20.00    -0.248 NA
HETATM    5  S10 UNL     1     -33.065   7.670   2.849  1.00 20.00    -0.068 SA
ENDROOT
BRANCH   3   6
HETATM    6  C5  UNL     1     -34.104   5.267   3.717  1.00 20.00     0.441 C 
HETATM    7  F7  UNL     1     -34.329   3.944   3.438  1.00 20.00    -0.164 F 
HETATM    8  F8  UNL     1     -33.427   5.259   4.909  1.00 20.00    -0.164 F 
HETATM    9  F9  UNL     1     -35.338   5.783   4.012  1.00 20.00    -0.164 F 
ENDBRANCH   3   6
BRANCH   2  10
HETATM   10  C4  UNL     1     -31.763   8.939   0.755  1.00 20.00     0.162 C 
HETATM   11 CL11 UNL     1     -32.821   9.658  -0.488  1.00 20.00    -0.125 Cl
ENDBRANCH   2  10
TORSDOF 2
