REMARK  1 active torsions:
REMARK  status: ('A' for Active; 'I' for Inactive)
REMARK    1  A    between atoms: C1_1  and  C9_9 
ROOT
HETATM    1  C1  UNL     1     -32.986   7.768   2.737  1.00 20.00     0.020 C 
HETATM    2  C2  UNL     1     -33.438   8.642   3.851  1.00 20.00     0.058 C 
HETATM    3  C3  UNL     1     -34.290   7.679   4.671  1.00 20.00     0.038 C 
HETATM    4  C4  UNL     1     -34.833   6.660   3.659  1.00 20.00     0.055 C 
HETATM    5  C5  UNL     1     -36.131   7.105   2.992  1.00 20.00     0.041 C 
HETATM    6  C6  UNL     1     -34.914   5.251   4.227  1.00 20.00     0.041 C 
HETATM    7  N10 UNL     1     -33.761   6.720   2.633  1.00 20.00    -0.224 N 
HETATM    8  O11 UNL     1     -33.643   5.838   1.724  1.00 20.00    -0.085 OA
ENDROOT
BRANCH   1   9
HETATM    9  C9  UNL     1     -31.899   8.061   1.778  1.00 20.00     0.025 C 
HETATM   10  C7  UNL     1     -31.203   6.773   1.326  1.00 20.00     0.016 C 
HETATM   11  C8  UNL     1     -32.417   8.836   0.561  1.00 20.00     0.016 C 
ENDBRANCH   1   9
TORSDOF 1
