REMARK  2 active torsions:
REMARK  status: ('A' for Active; 'I' for Inactive)
REMARK    1  A    between atoms: C4_4  and  C8_8 
REMARK    2  A    between atoms: C5_5  and  O9_9 
ROOT
HETATM    1  C1  UNL     1     -33.650   4.751   3.306  1.00 20.00     0.007 C 
HETATM    2  C2  UNL     1     -34.858   4.841   4.245  1.00 20.00     0.032 C 
HETATM    3  C3  UNL     1     -34.289   7.055   3.443  1.00 20.00     0.036 C 
HETATM    4  C4  UNL     1     -33.666   6.040   2.485  1.00 20.00    -0.009 C 
HETATM    5  C5  UNL     1     -35.411   6.258   4.097  1.00 20.00     0.118 C 
ENDROOT
BRANCH   4   6
HETATM    6  C8  UNL     1     -32.290   6.452   1.990  1.00 20.00    -0.019 C 
HETATM    7  C6  UNL     1     -31.670   5.352   1.126  1.00 20.00     0.010 C 
HETATM    8  C7  UNL     1     -32.364   7.764   1.206  1.00 20.00     0.010 C 
ENDBRANCH   4   6
BRANCH   5   9
HETATM    9  O9  UNL     1     -36.545   6.222   3.236  1.00 20.00    -0.396 OA
HETATM   10  H25 UNL     1     -37.194   5.636   3.657  1.00 20.00     0.210 HD
ENDBRANCH   5   9
TORSDOF 2
