REMARK  1 active torsions:
REMARK  status: ('A' for Active; 'I' for Inactive)
REMARK    1  A    between atoms: C5_5  and  O10_10 
ROOT
HETATM    1  C1  UNL     1     -33.832   6.832   3.477  1.00 20.00     0.050 A 
HETATM    2  C2  UNL     1     -33.036   4.841   2.327  1.00 20.00     0.079 A 
HETATM    3  C3  UNL     1     -33.125   7.598   2.566  1.00 20.00    -0.046 A 
HETATM    4  C4  UNL     1     -32.375   6.998   1.547  1.00 20.00    -0.018 A 
HETATM    5  C5  UNL     1     -32.316   5.621   1.419  1.00 20.00     0.075 A 
HETATM    6  C6  UNL     1     -33.789   5.443   3.349  1.00 20.00     0.119 A 
HETATM    7  C7  UNL     1     -32.987   9.087   2.523  1.00 20.00     0.039 C 
HETATM    8  C8  UNL     1     -31.668   8.031   0.728  1.00 20.00     0.042 C 
HETATM    9  C9  UNL     1     -32.458   9.295   1.096  1.00 20.00     0.009 C 
HETATM   10  F11 UNL     1     -34.466   4.674   4.213  1.00 20.00    -0.206 F 
ENDROOT
BRANCH   5  11
HETATM   11  O10 UNL     1     -31.579   5.033   0.443  1.00 20.00    -0.360 OA
HETATM   12  H20 UNL     1     -31.648   4.065   0.500  1.00 20.00     0.217 HD
ENDBRANCH   5  11
TORSDOF 1
