REMARK  0 active torsions:
REMARK  status: ('A' for Active; 'I' for Inactive)
ROOT
HETATM    1  C1  UNL     1     -31.462   5.365   1.042  1.00 20.00     0.097 A 
HETATM    2  C2  UNL     1     -32.805   4.138   2.517  1.00 20.00     0.097 A 
HETATM    3  C3  UNL     1     -31.994   6.569   1.501  1.00 20.00    -0.016 A 
HETATM    4  C4  UNL     1     -33.379   5.304   3.023  1.00 20.00    -0.016 A 
HETATM    5  C5  UNL     1     -32.955   6.554   2.531  1.00 20.00     0.045 A 
HETATM    6  C6  UNL     1     -31.492   7.866   0.924  1.00 20.00     0.044 C 
HETATM    7  C7  UNL     1     -34.403   5.207   4.121  1.00 20.00     0.044 C 
HETATM    8  C8  UNL     1     -32.480   8.999   1.176  1.00 20.00     0.025 C 
HETATM    9  C9  UNL     1     -35.240   6.477   4.208  1.00 20.00     0.025 C 
HETATM   10  C10 UNL     1     -32.902   9.017   2.639  1.00 20.00     0.123 C 
HETATM   11  C11 UNL     1     -34.339   7.705   4.217  1.00 20.00     0.123 C 
HETATM   12  N12 UNL     1     -31.878   4.204   1.556  1.00 20.00    -0.374 N 
HETATM   13  N13 UNL     1     -33.501   7.741   3.021  1.00 20.00    -0.380 N 
HETATM   14  H28 UNL     1     -31.473   3.337   1.204  1.00 20.00     0.164 HD
ENDROOT
TORSDOF 0
