REMARK  4 active torsions:
REMARK  status: ('A' for Active; 'I' for Inactive)
REMARK    1  A    between atoms: C1_1  and  C7_7 
REMARK    2  A    between atoms: C1_1  and  O11_11 
REMARK    3  A    between atoms: C7_7  and  C8_8 
REMARK    4  A    between atoms: C8_8  and  C9_9 
ROOT
HETATM    1  C2  UNL     1     -33.117   9.204   2.954  1.00 20.00     0.011 C 
HETATM    2  C8  UNL     1     -33.086   8.431   1.621  1.00 20.00    -0.002 C 
ENDROOT
BRANCH   2   3
HETATM    3  C7  UNL     1     -32.433   7.049   1.859  1.00 20.00     0.116 C 
BRANCH   3   4
HETATM    4  C1  UNL     1     -33.347   6.074   2.575  1.00 20.00     0.258 C 
HETATM    5  O10 UNL     1     -33.299   4.856   2.467  1.00 20.00    -0.265 OA
BRANCH   4   6
HETATM    6  O11 UNL     1     -34.199   6.772   3.382  1.00 20.00    -0.326 OA
HETATM    7  C6  UNL     1     -35.103   5.978   4.158  1.00 20.00     0.213 C 
ENDBRANCH   4   6
ENDBRANCH   3   4
ENDBRANCH   2   3
BRANCH   2   8
HETATM    8  C9  UNL     1     -32.417   9.243   0.449  1.00 20.00    -0.048 C 
HETATM    9  C3  UNL     1     -33.102  10.603   0.212  1.00 20.00     0.015 C 
HETATM   10  C4  UNL     1     -32.468   8.440  -0.870  1.00 20.00     0.015 C 
HETATM   11  C5  UNL     1     -30.925   9.500   0.762  1.00 20.00     0.015 C 
ENDBRANCH   2   8
TORSDOF 4
