REMARK  1 active torsions:
REMARK  status: ('A' for Active; 'I' for Inactive)
REMARK    1  A    between atoms: C5_5  and  C8_8 
ROOT
HETATM    1  C1  UNL     1     -33.711   5.668   2.118  1.00 20.00     0.052 C 
HETATM    2  C2  UNL     1     -33.965   6.634   3.013  1.00 20.00    -0.080 C 
HETATM    3  C3  UNL     1     -32.397   5.600   1.433  1.00 20.00     0.150 C 
HETATM    4  C6  UNL     1     -32.981   7.732   3.339  1.00 20.00     0.043 C 
HETATM    5  C7  UNL     1     -31.320   6.586   1.833  1.00 20.00     0.092 C 
HETATM    6  C8  UNL     1     -31.906   7.933   2.260  1.00 20.00     0.024 C 
HETATM    7  C9  UNL     1     -35.266   6.679   3.763  1.00 20.00     0.043 C 
HETATM    8  O11 UNL     1     -32.185   4.714   0.607  1.00 20.00    -0.293 OA
ENDROOT
BRANCH   6   9
HETATM    9  C5  UNL     1     -32.440   8.700   1.081  1.00 20.00    -0.088 C 
HETATM   10  C4  UNL     1     -32.416   8.196  -0.162  1.00 20.00     0.014 C 
HETATM   11  C10 UNL     1     -33.000  10.059   1.374  1.00 20.00     0.043 C 
ENDBRANCH   6   9
TORSDOF 1
