REMARK  2 active torsions:
REMARK  status: ('A' for Active; 'I' for Inactive)
REMARK    1  A    between atoms: C2_2  and  C6_6 
REMARK    2  A    between atoms: C3_3  and  C7_7 
ROOT
HETATM    1  C1  UNL     1     -34.291   6.667   4.477  1.00 20.00     0.133 A 
HETATM    2  C2  UNL     1     -34.106   5.410   3.942  1.00 20.00     0.016 A 
HETATM    3  C3  UNL     1     -33.070   7.224   2.743  1.00 20.00     0.078 A 
HETATM    4  N8  UNL     1     -33.697   7.709   3.792  1.00 20.00    -0.257 NA
HETATM    5  S9  UNL     1     -33.153   5.525   2.520  1.00 20.00    -0.076 SA
ENDROOT
BRANCH   3   6
HETATM    6  C7  UNL     1     -32.296   8.062   1.742  1.00 20.00     0.037 C 
HETATM    7  C4  UNL     1     -31.115   8.779   2.401  1.00 20.00     0.016 C 
HETATM    8  C5  UNL     1     -33.206   9.060   1.021  1.00 20.00     0.016 C 
ENDBRANCH   3   6
BRANCH   2   9
HETATM    9  C6  UNL     1     -34.593   4.100   4.414  1.00 20.00     0.162 C 
HETATM   10 CL10 UNL     1     -33.281   3.159   5.172  1.00 20.00    -0.125 Cl
ENDBRANCH   2   9
TORSDOF 2
