REMARK  2 active torsions:
REMARK  status: ('A' for Active; 'I' for Inactive)
REMARK    1  A    between atoms: C2_2  and  C5_5 
REMARK    2  A    between atoms: C9_9  and  N10_10 
ROOT
HETATM    1  C3  UNL     1     -32.098   5.220   1.765  1.00 20.00     0.070 C 
HETATM    2  C4  UNL     1     -33.495   4.812   2.272  1.00 20.00     0.277 C 
HETATM    3  C5  UNL     1     -32.269   6.441   2.700  1.00 20.00     0.247 C 
HETATM    4  N10 UNL     1     -33.740   6.249   2.560  1.00 20.00     0.105 N 
ENDROOT
BRANCH   4   5
HETATM    5  C9  UNL     1     -34.409   6.403   3.849  1.00 20.00     0.150 C 
HETATM    6  C6  UNL     1     -33.990   5.257   4.776  1.00 20.00     0.048 C 
HETATM    7  C7  UNL     1     -34.003   7.745   4.467  1.00 20.00     0.048 C 
HETATM    8  C8  UNL     1     -35.927   6.366   3.640  1.00 20.00     0.048 C 
ENDBRANCH   4   5
BRANCH   3   9
HETATM    9  C2  UNL     1     -31.835   7.738   2.149  1.00 20.00    -0.002 C 
HETATM   10  C1  UNL     1     -32.556   8.465   1.289  1.00 20.00     0.009 C 
ENDBRANCH   3   9
TORSDOF 2
