REMARK  2 active torsions:
REMARK  status: ('A' for Active; 'I' for Inactive)
REMARK    1  A    between atoms: C4_4  and  C7_7 
REMARK    2  A    between atoms: C5_5  and  O8_8 
ROOT
HETATM    1  C1  UNL     1     -31.709   6.005   1.399  1.00 20.00     0.007 C 
HETATM    2  C2  UNL     1     -33.067   5.495   1.879  1.00 20.00     0.032 C 
HETATM    3  C3  UNL     1     -32.697   7.801   2.601  1.00 20.00     0.036 C 
HETATM    4  C4  UNL     1     -31.839   7.527   1.369  1.00 20.00    -0.012 C 
HETATM    5  C5  UNL     1     -33.713   6.661   2.632  1.00 20.00     0.118 C 
ENDROOT
BRANCH   4   6
HETATM    6  C7  UNL     1     -32.490   8.029   0.082  1.00 20.00     0.000 C 
HETATM    7  C6  UNL     1     -32.667   9.515   0.086  1.00 20.00     0.005 C 
ENDBRANCH   4   6
BRANCH   5   8
HETATM    8  O8  UNL     1     -34.006   6.309   3.974  1.00 20.00    -0.396 OA
HETATM    9  H22 UNL     1     -34.409   7.091   4.383  1.00 20.00     0.210 HD
ENDBRANCH   5   8
TORSDOF 2
