REMARK  2 active torsions:
REMARK  status: ('A' for Active; 'I' for Inactive)
REMARK    1  A    between atoms: C5_5  and  C8_8 
REMARK    2  A    between atoms: C6_6  and  N9_9 
ROOT
HETATM    1  C1  UNL     1     -32.132   8.283   3.569  1.00 20.00     0.006 C 
HETATM    2  C2  UNL     1     -32.092   6.784   1.533  1.00 20.00     0.006 C 
HETATM    3  C3  UNL     1     -33.498   7.721   3.958  1.00 20.00     0.024 C 
HETATM    4  C4  UNL     1     -33.459   6.220   1.920  1.00 20.00     0.024 C 
HETATM    5  C5  UNL     1     -31.858   8.207   2.060  1.00 20.00    -0.015 C 
HETATM    6  C6  UNL     1     -33.690   6.301   3.428  1.00 20.00     0.109 C 
ENDROOT
BRANCH   5   7
HETATM    7  C8  UNL     1     -32.680   9.240   1.283  1.00 20.00     0.000 C 
HETATM    8  C7  UNL     1     -32.371   9.204  -0.177  1.00 20.00     0.005 C 
ENDBRANCH   5   7
BRANCH   6   9
HETATM    9  N9  UNL     1     -35.054   5.852   3.731  1.00 20.00    -0.059 NA
HETATM   10  O10 UNL     1     -35.048   4.860   4.457  1.00 20.00    -0.101 OA
ENDBRANCH   6   9
TORSDOF 2
