REMARK  2 active torsions:
REMARK  status: ('A' for Active; 'I' for Inactive)
REMARK    1  A    between atoms: C7_7  and  C8_8 
REMARK    2  A    between atoms: C8_8  and  O10_10 
ROOT
HETATM    1  C1  UNL     1     -33.177   4.645   3.935  1.00 20.00     0.071 C 
HETATM    2  C2  UNL     1     -32.328   7.663   1.991  1.00 20.00     0.000 C 
HETATM    3  C3  UNL     1     -32.629   7.664   3.485  1.00 20.00     0.002 C 
HETATM    4  C4  UNL     1     -32.385   6.256   1.406  1.00 20.00     0.002 C 
HETATM    5  C5  UNL     1     -33.967   6.989   3.793  1.00 20.00     0.027 C 
HETATM    6  C6  UNL     1     -33.722   5.574   1.704  1.00 20.00     0.027 C 
HETATM    7  C7  UNL     1     -34.080   5.565   3.205  1.00 20.00     0.070 C 
HETATM    8  N9  UNL     1     -32.470   3.924   4.506  1.00 20.00    -0.196 NA
ENDROOT
BRANCH   7   9
HETATM    9  C8  UNL     1     -35.521   5.055   3.382  1.00 20.00     0.188 C 
BRANCH   9  10
HETATM   10  O10 UNL     1     -35.813   5.038   4.763  1.00 20.00    -0.399 OA
HETATM   11  H23 UNL     1     -36.726   4.714   4.861  1.00 20.00     0.209 HD
ENDBRANCH   9  10
ENDBRANCH   7   9
TORSDOF 2
