REMARK  1 active torsions:
REMARK  status: ('A' for Active; 'I' for Inactive)
REMARK    1  A    between atoms: C2_2  and  C6_6 
ROOT
HETATM    1  C1  UNL     1     -33.335   7.977   3.387  1.00 20.00     0.134 A 
HETATM    2  C2  UNL     1     -32.797   7.450   2.232  1.00 20.00     0.006 A 
HETATM    3  C3  UNL     1     -34.155   5.949   3.538  1.00 20.00     0.167 A 
HETATM    4  N7  UNL     1     -34.114   7.118   4.137  1.00 20.00    -0.240 NA
HETATM    5  S8  UNL     1     -33.278   5.811   2.069  1.00 20.00    -0.061 SA
HETATM    6 CL9  UNL     1     -35.023   4.606   4.155  1.00 20.00    -0.054 Cl
ENDROOT
BRANCH   2   7
HETATM    7  C6  UNL     1     -31.908   8.099   1.189  1.00 20.00     0.019 C 
HETATM    8  C4  UNL     1     -30.570   8.541   1.786  1.00 20.00     0.015 C 
HETATM    9  C5  UNL     1     -32.612   9.272   0.501  1.00 20.00     0.015 C 
ENDBRANCH   2   7
TORSDOF 1
