REMARK  4 active torsions:
REMARK  status: ('A' for Active; 'I' for Inactive)
REMARK    1  A    between atoms: C1_1  and  C7_7 
REMARK    2  A    between atoms: C1_1  and  C8_8 
REMARK    3  A    between atoms: C7_7  and  O10_10 
REMARK    4  A    between atoms: C7_7  and  O11_11 
ROOT
HETATM    1  C1  UNL     1     -33.675   5.889   2.933  1.00 20.00     0.188 C 
HETATM    2  O9  UNL     1     -33.464   4.795   3.465  1.00 20.00    -0.292 OA
ENDROOT
BRANCH   1   3
HETATM    3  C7  UNL     1     -33.023   6.230   1.596  1.00 20.00     0.330 C 
BRANCH   3   4
HETATM    4  O10 UNL     1     -32.313   7.441   1.858  1.00 20.00    -0.359 OA
HETATM    5  C5  UNL     1     -31.629   7.920   0.707  1.00 20.00     0.205 C 
ENDBRANCH   3   4
BRANCH   3   6
HETATM    6  O11 UNL     1     -32.136   5.181   1.224  1.00 20.00    -0.359 OA
HETATM    7  C6  UNL     1     -32.814   4.072   0.649  1.00 20.00     0.205 C 
ENDBRANCH   3   6
ENDBRANCH   1   3
BRANCH   1   8
HETATM    8  C8  UNL     1     -34.637   6.917   3.569  1.00 20.00     0.015 C 
HETATM    9  C2  UNL     1     -35.314   7.713   2.446  1.00 20.00     0.023 C 
HETATM   10  C3  UNL     1     -35.718   6.172   4.374  1.00 20.00     0.023 C 
HETATM   11  C4  UNL     1     -33.898   7.867   4.520  1.00 20.00     0.023 C 
ENDBRANCH   1   8
TORSDOF 4
