REMARK  1 active torsions:
REMARK  status: ('A' for Active; 'I' for Inactive)
REMARK    1  A    between atoms: C1_1  and  C8_8 
ROOT
HETATM    1  C2  UNL     1     -34.534   6.494   3.592  1.00 20.00     0.000 C 
HETATM    2  C3  UNL     1     -33.753   7.627   4.247  1.00 20.00     0.001 C 
HETATM    3  C4  UNL     1     -33.624   5.640   2.716  1.00 20.00     0.006 C 
HETATM    4  C5  UNL     1     -33.227   8.605   3.200  1.00 20.00     0.019 C 
HETATM    5  C6  UNL     1     -31.446   6.958   2.249  1.00 20.00     0.025 A 
HETATM    6  C7  UNL     1     -32.787   6.458   1.780  1.00 20.00     0.004 A 
HETATM    7  C8  UNL     1     -32.565   7.948   2.003  1.00 20.00     0.040 A 
ENDROOT
BRANCH   7   8
HETATM    8  C1  UNL     1     -32.430   8.788   0.789  1.00 20.00     0.228 C 
HETATM    9  O9  UNL     1     -31.910   8.360  -0.237  1.00 20.00    -0.279 OA
HETATM   10 CL10 UNL     1     -33.080  10.383   1.021  1.00 20.00    -0.043 Cl
ENDBRANCH   7   8
TORSDOF 1
