REMARK  0 active torsions:
REMARK  status: ('A' for Active; 'I' for Inactive)
ROOT
HETATM    1  C1  UNL     1     -33.262   8.899   2.057  1.00 20.00     0.047 A 
HETATM    2  C2  UNL     1     -33.452   7.568   2.471  1.00 20.00     0.025 A 
HETATM    3  C3  UNL     1     -32.902   6.662   1.610  1.00 20.00    -0.002 A 
HETATM    4  C4  UNL     1     -32.556   8.936   0.865  1.00 20.00     0.075 A 
HETATM    5  C5  UNL     1     -34.071   6.866   3.563  1.00 20.00     0.161 A 
HETATM    6  C6  UNL     1     -33.074   5.243   2.001  1.00 20.00     0.055 A 
HETATM    7  C7  UNL     1     -33.875   5.359   3.336  1.00 20.00     0.089 A 
HETATM    8  O8  UNL     1     -34.652   7.378   4.506  1.00 20.00    -0.292 OA
HETATM    9  S9  UNL     1     -32.147   7.356   0.287  1.00 20.00    -0.082 SA
HETATM   10 CL10 UNL     1     -32.082  10.319  -0.032  1.00 20.00    -0.076 Cl
ENDROOT
TORSDOF 0
