REMARK  2 active torsions:
REMARK  status: ('A' for Active; 'I' for Inactive)
REMARK    1  A    between atoms: C4_4  and  C8_8 
REMARK    2  A    between atoms: C5_5  and  O9_9 
ROOT
HETATM    1  C1  UNL     1     -31.461   6.328   1.595  1.00 20.00     0.007 C 
HETATM    2  C2  UNL     1     -32.839   5.710   1.806  1.00 20.00     0.032 C 
HETATM    3  C3  UNL     1     -32.675   7.880   2.940  1.00 20.00     0.036 C 
HETATM    4  C4  UNL     1     -31.677   7.828   1.781  1.00 20.00    -0.009 C 
HETATM    5  C5  UNL     1     -33.571   6.651   2.764  1.00 20.00     0.118 C 
ENDROOT
BRANCH   4   6
HETATM    6  C8  UNL     1     -32.216   8.499   0.519  1.00 20.00    -0.019 C 
HETATM    7  C6  UNL     1     -32.452   9.992   0.755  1.00 20.00     0.010 C 
HETATM    8  C7  UNL     1     -31.261   8.292  -0.658  1.00 20.00     0.010 C 
ENDBRANCH   4   6
BRANCH   5   9
HETATM    9  O9  UNL     1     -34.820   7.023   2.194  1.00 20.00    -0.396 OA
HETATM   10  H25 UNL     1     -35.320   6.202   2.063  1.00 20.00     0.210 HD
ENDBRANCH   5   9
TORSDOF 2
