REMARK  0 active torsions:
REMARK  status: ('A' for Active; 'I' for Inactive)
ROOT
HETATM    1  C1  UNL     1     -33.620   5.737   2.754  1.00 20.00     0.047 A 
HETATM    2  C2  UNL     1     -32.923   6.917   2.440  1.00 20.00     0.026 A 
HETATM    3  C3  UNL     1     -33.146   7.920   3.340  1.00 20.00    -0.001 A 
HETATM    4  C4  UNL     1     -34.363   5.910   3.911  1.00 20.00     0.075 A 
HETATM    5  C5  UNL     1     -32.024   7.389   1.418  1.00 20.00     0.175 A 
HETATM    6  C6  UNL     1     -32.418   9.186   3.065  1.00 20.00     0.071 A 
HETATM    7  C7  UNL     1     -31.697   8.859   1.722  1.00 20.00     0.137 A 
HETATM    8  O8  UNL     1     -31.618   6.733   0.472  1.00 20.00    -0.291 OA
HETATM    9  S9  UNL     1     -34.188   7.497   4.581  1.00 20.00    -0.082 SA
HETATM   10 CL10 UNL     1     -35.373   4.765   4.691  1.00 20.00    -0.076 Cl
HETATM   11 BR11 UNL     1     -32.441   9.895   0.261  1.00 20.00    -0.082 Br
ENDROOT
TORSDOF 0
