REMARK  2 active torsions:
REMARK  status: ('A' for Active; 'I' for Inactive)
REMARK    1  A    between atoms: C6_6  and  C8_8 
REMARK    2  A    between atoms: C7_7  and  C8_8 
ROOT
HETATM    1  C1  UNL     1     -31.983   9.507  -0.288  1.00 20.00     0.001 A 
HETATM    2  C2  UNL     1     -32.470  10.332   0.802  1.00 20.00     0.001 A 
HETATM    3  C3  UNL     1     -32.108   8.211   0.041  1.00 20.00     0.013 A 
HETATM    4  C4  UNL     1     -32.895   9.546   1.803  1.00 20.00     0.013 A 
HETATM    5  C5  UNL     1     -32.687   8.178   1.370  1.00 20.00    -0.018 A 
HETATM    6  C7  UNL     1     -32.977   7.080   2.072  1.00 20.00     0.028 C 
HETATM    7 CL10 UNL     1     -32.616   5.514   1.422  1.00 20.00    -0.088 Cl
ENDROOT
BRANCH   6   8
HETATM    8  C8  UNL     1     -33.576   7.094   3.445  1.00 20.00     0.121 C 
BRANCH   8   9
HETATM    9  C6  UNL     1     -34.912   6.384   3.493  1.00 20.00     0.236 C 
HETATM   10  O9  UNL     1     -35.159   5.384   4.159  1.00 20.00    -0.307 OA
ENDBRANCH   8   9
ENDBRANCH   6   8
TORSDOF 2
