REMARK  2 active torsions:
REMARK  status: ('A' for Active; 'I' for Inactive)
REMARK    1  A    between atoms: C4_4  and  C7_7 
REMARK    2  A    between atoms: C5_5  and  O8_8 
ROOT
HETATM    1  C1  UNL     1     -32.385   7.960   2.669  1.00 20.00     0.007 C 
HETATM    2  C2  UNL     1     -33.523   6.952   2.777  1.00 20.00     0.032 C 
HETATM    3  C3  UNL     1     -31.695   6.056   1.407  1.00 20.00     0.036 C 
HETATM    4  C4  UNL     1     -31.661   7.587   1.378  1.00 20.00    -0.012 C 
HETATM    5  C5  UNL     1     -33.019   5.687   2.079  1.00 20.00     0.118 C 
ENDROOT
BRANCH   4   6
HETATM    6  C7  UNL     1     -32.347   8.159   0.139  1.00 20.00     0.000 C 
HETATM    7  C6  UNL     1     -32.359   9.656   0.147  1.00 20.00     0.005 C 
ENDBRANCH   4   6
BRANCH   5   8
HETATM    8  O8  UNL     1     -33.953   5.264   1.094  1.00 20.00    -0.396 OA
HETATM    9  H22 UNL     1     -34.785   5.088   1.560  1.00 20.00     0.210 HD
ENDBRANCH   5   8
TORSDOF 2
