REMARK  2 active torsions:
REMARK  status: ('A' for Active; 'I' for Inactive)
REMARK    1  A    between atoms: C7_7  and  C9_9 
REMARK    2  A    between atoms: C8_8  and  C10_10 
ROOT
HETATM    1  C1  UNL     1     -33.539   5.523   0.801  1.00 20.00     0.131 C 
HETATM    2  C2  UNL     1     -33.465   7.014   0.561  1.00 20.00     0.083 C 
HETATM    3  C6  UNL     1     -31.407   6.162   1.401  1.00 20.00     0.018 C 
HETATM    4  C7  UNL     1     -32.464   5.120   1.792  1.00 20.00     0.060 C 
HETATM    5  C8  UNL     1     -32.360   7.354   1.582  1.00 20.00    -0.002 C 
HETATM    6  O11 UNL     1     -34.353   4.767   0.294  1.00 20.00    -0.298 OA
ENDROOT
BRANCH   4   7
HETATM    7  C9  UNL     1     -32.857   5.604   3.198  1.00 20.00     0.001 C 
HETATM    8  C4  UNL     1     -34.252   5.264   3.711  1.00 20.00     0.006 C 
HETATM    9  C3  UNL     1     -35.117   6.484   3.417  1.00 20.00     0.001 C 
HETATM   10  C5  UNL     1     -34.162   7.670   3.496  1.00 20.00     0.005 C 
HETATM   11  C10 UNL     1     -32.798   7.147   3.057  1.00 20.00    -0.005 C 
ENDBRANCH   4   7
TORSDOF 2
