REMARK  1 active torsions:
REMARK  status: ('A' for Active; 'I' for Inactive)
REMARK    1  A    between atoms: C2_2  and  C6_6 
ROOT
HETATM    1  C1  UNL     1     -33.534   6.065   2.105  1.00 20.00    -0.021 C 
HETATM    2  C2  UNL     1     -34.001   6.399   3.322  1.00 20.00    -0.061 C 
HETATM    3  C3  UNL     1     -32.517   6.836   1.316  1.00 20.00     0.037 C 
HETATM    4  C4  UNL     1     -33.600   7.635   4.086  1.00 20.00     0.108 C 
HETATM    5  C5  UNL     1     -31.724   7.866   2.111  1.00 20.00     0.078 C 
HETATM    6  S7  UNL     1     -32.838   8.926   3.066  1.00 20.00    -0.165 SA
ENDROOT
BRANCH   2   7
HETATM    7  C6  UNL     1     -34.998   5.519   4.026  1.00 20.00     0.149 C 
HETATM    8 CL8  UNL     1     -34.243   3.938   4.202  1.00 20.00    -0.126 Cl
ENDBRANCH   2   7
TORSDOF 1
