REMARK  2 active torsions:
REMARK  status: ('A' for Active; 'I' for Inactive)
REMARK    1  A    between atoms: C1_1  and  C4_4 
REMARK    2  A    between atoms: C1_1  and  C5_5 
ROOT
HETATM    1  C2  UNL     1     -31.391   7.457   1.932  1.00 20.00     0.055 A 
HETATM    2  C3  UNL     1     -32.488   8.198   1.226  1.00 20.00     0.055 A 
HETATM    3  C4  UNL     1     -32.818   7.003   2.079  1.00 20.00     0.164 A 
HETATM    4  F7  UNL     1     -33.151   5.845   1.383  1.00 20.00    -0.235 F 
ENDROOT
BRANCH   3   5
HETATM    5  C1  UNL     1     -33.514   7.189   3.355  1.00 20.00     0.179 C 
HETATM    6  O6  UNL     1     -33.226   8.128   4.095  1.00 20.00    -0.293 OA
BRANCH   5   7
HETATM    7  C5  UNL     1     -34.578   6.165   3.677  1.00 20.00     0.196 C 
HETATM    8 CL8  UNL     1     -33.883   4.538   3.734  1.00 20.00    -0.122 Cl
ENDBRANCH   5   7
ENDBRANCH   3   5
TORSDOF 2
