REMARK  0 active torsions:
REMARK  status: ('A' for Active; 'I' for Inactive)
ROOT
HETATM    1  C1  UNL     1     -31.978   6.791   1.765  1.00 20.00     0.064 C 
HETATM    2  C2  UNL     1     -32.286   8.213   2.222  1.00 20.00     0.170 C 
HETATM    3  C3  UNL     1     -34.066   7.640   3.679  1.00 20.00     0.205 C 
HETATM    4  C4  UNL     1     -33.141   5.885   2.019  1.00 20.00     0.258 A 
HETATM    5  C5  UNL     1     -34.187   6.307   3.016  1.00 20.00     0.277 A 
HETATM    6  N6  UNL     1     -33.243   5.248   3.335  1.00 20.00     0.099 N 
HETATM    7  O7  UNL     1     -32.745   8.190   3.575  1.00 20.00    -0.389 OA
HETATM    8  H16 UNL     1     -33.693   4.338   3.244  1.00 20.00     0.317 HD
ENDROOT
TORSDOF 0
