REMARK  4 active torsions:
REMARK  status: ('A' for Active; 'I' for Inactive)
REMARK    1  A    between atoms: C2_2  and  C6_6 
REMARK    2  A    between atoms: C6_6  and  C8_8 
REMARK    3  A    between atoms: C7_7  and  C8_8 
REMARK    4  A    between atoms: C8_8  and  O9_9 
ROOT
HETATM    1  C1  UNL     1     -32.288   8.729   0.825  1.00 20.00    -0.111 C 
HETATM    2  C2  UNL     1     -32.187   7.735   1.491  1.00 20.00    -0.104 C 
HETATM    3  C3  UNL     1     -32.412   9.939   0.013  1.00 20.00     0.112 C 
ENDROOT
BRANCH   2   4
HETATM    4  C6  UNL     1     -32.062   6.515   2.307  1.00 20.00     0.126 C 
BRANCH   4   5
HETATM    5  C8  UNL     1     -33.437   5.916   2.636  1.00 20.00     0.132 C 
BRANCH   5   6
HETATM    6  C7  UNL     1     -34.327   6.886   3.448  1.00 20.00     0.007 C 
HETATM    7  C4  UNL     1     -33.690   7.321   4.772  1.00 20.00     0.012 C 
HETATM    8  C5  UNL     1     -35.696   6.256   3.729  1.00 20.00     0.012 C 
ENDBRANCH   5   6
BRANCH   5   9
HETATM    9  O9  UNL     1     -33.261   4.709   3.379  1.00 20.00    -0.394 OA
HETATM   10  H23 UNL     1     -32.748   4.113   2.814  1.00 20.00     0.210 HD
ENDBRANCH   5   9
ENDBRANCH   4   5
ENDBRANCH   2   4
TORSDOF 4
