REMARK  0 active torsions:
REMARK  status: ('A' for Active; 'I' for Inactive)
ROOT
HETATM    1  C1  UNL     1     -31.832   7.052   1.474  1.00 20.00     0.136 A 
HETATM    2  C2  UNL     1     -32.032   8.230   2.193  1.00 20.00     0.136 A 
HETATM    3  C3  UNL     1     -34.266   5.018   3.073  1.00 20.00     0.083 A 
HETATM    4  C4  UNL     1     -34.621   7.116   4.355  1.00 20.00     0.083 A 
HETATM    5  C5  UNL     1     -33.433   6.030   2.665  1.00 20.00     0.092 A 
HETATM    6  C6  UNL     1     -33.638   7.241   3.404  1.00 20.00     0.092 A 
HETATM    7  N7  UNL     1     -32.518   5.898   1.670  1.00 20.00    -0.257 NA
HETATM    8  N8  UNL     1     -32.939   8.386   3.190  1.00 20.00    -0.257 NA
HETATM    9  S9  UNL     1     -35.294   5.534   4.351  1.00 20.00    -0.109 SA
ENDROOT
TORSDOF 0
