REMARK  1 active torsions:
REMARK  status: ('A' for Active; 'I' for Inactive)
REMARK    1  A    between atoms: C6_6  and  O8_8 
ROOT
HETATM    1  C1  UNL     1     -32.414   8.696   1.052  1.00 20.00     0.015 C 
HETATM    2  C2  UNL     1     -32.669   8.293   2.154  1.00 20.00    -0.077 C 
HETATM    3  C3  UNL     1     -32.542   6.362   3.692  1.00 20.00     0.080 C 
HETATM    4  C4  UNL     1     -33.704   5.575   3.121  1.00 20.00     0.171 C 
HETATM    5  C5  UNL     1     -34.483   7.688   3.733  1.00 20.00     0.219 C 
HETATM    6  C6  UNL     1     -32.984   7.798   3.503  1.00 20.00     0.143 C 
HETATM    7  O7  UNL     1     -34.881   6.371   3.319  1.00 20.00    -0.387 OA
ENDROOT
BRANCH   6   8
HETATM    8  O8  UNL     1     -32.377   8.637   4.472  1.00 20.00    -0.375 OA
HETATM    9  H16 UNL     1     -32.609   8.276   5.345  1.00 20.00     0.211 HD
ENDBRANCH   6   8
TORSDOF 1
