REMARK  3 active torsions:
REMARK  status: ('A' for Active; 'I' for Inactive)
REMARK    1  A    between atoms: C2_2  and  C6_6 
REMARK    2  A    between atoms: C3_3  and  C6_6 
REMARK    3  A    between atoms: C3_3  and  C7_7 
ROOT
HETATM    1  C3  UNL     1     -31.938   7.856   1.877  1.00 20.00     0.240 C 
HETATM    2  O8  UNL     1     -31.344   8.295   2.862  1.00 20.00    -0.287 OA
ENDROOT
BRANCH   1   3
HETATM    3  C6  UNL     1     -32.568   6.466   1.855  1.00 20.00     0.088 C 
HETATM    4  C5  UNL     1     -31.438   5.442   1.970  1.00 20.00     0.023 C 
BRANCH   3   5
HETATM    5  C2  UNL     1     -33.653   6.415   2.915  1.00 20.00    -0.082 C 
HETATM    6  C1  UNL     1     -34.051   5.296   3.542  1.00 20.00     0.014 C 
HETATM    7  C4  UNL     1     -34.279   7.740   3.267  1.00 20.00     0.043 C 
ENDBRANCH   3   5
ENDBRANCH   1   3
BRANCH   1   8
HETATM    8  C7  UNL     1     -32.095   8.689   0.635  1.00 20.00     0.451 C 
HETATM    9  F9  UNL     1     -32.796   8.034  -0.324  1.00 20.00    -0.163 F 
HETATM   10  F10 UNL     1     -30.899   9.023   0.089  1.00 20.00    -0.163 F 
HETATM   11  F11 UNL     1     -32.752   9.849   0.885  1.00 20.00    -0.163 F 
ENDBRANCH   1   8
TORSDOF 3
