REMARK  4 active torsions:
REMARK  status: ('A' for Active; 'I' for Inactive)
REMARK    1  A    between atoms: C1_1  and  C8_8 
REMARK    2  A    between atoms: C1_1  and  C9_9 
REMARK    3  A    between atoms: C6_6  and  C8_8 
REMARK    4  A    between atoms: C7_7  and  C9_9 
ROOT
HETATM    1  C1  UNL     1     -32.318   7.383   1.659  1.00 20.00     0.127 C 
HETATM    2  O10 UNL     1     -31.234   6.815   1.526  1.00 20.00    -0.298 OA
ENDROOT
BRANCH   1   3
HETATM    3  C8  UNL     1     -33.601   6.622   1.949  1.00 20.00     0.082 C 
BRANCH   3   4
HETATM    4  C6  UNL     1     -33.876   6.483   3.436  1.00 20.00    -0.008 A 
HETATM    5  C2  UNL     1     -34.672   7.533   4.161  1.00 20.00     0.005 A 
HETATM    6  C3  UNL     1     -35.264   6.172   3.922  1.00 20.00     0.005 A 
ENDBRANCH   3   4
ENDBRANCH   1   3
BRANCH   1   7
HETATM    7  C9  UNL     1     -32.463   8.891   1.543  1.00 20.00     0.082 C 
BRANCH   7   8
HETATM    8  C7  UNL     1     -32.063   9.416   0.176  1.00 20.00    -0.008 A 
HETATM    9  C4  UNL     1     -33.083   9.521  -0.923  1.00 20.00     0.005 A 
HETATM   10  C5  UNL     1     -32.536  10.767  -0.284  1.00 20.00     0.005 A 
ENDBRANCH   7   8
ENDBRANCH   1   7
TORSDOF 4
