REMARK  2 active torsions:
REMARK  status: ('A' for Active; 'I' for Inactive)
REMARK    1  A    between atoms: C1_1  and  C7_7 
REMARK    2  A    between atoms: C7_7  and  N8_8 
ROOT
HETATM    1  C1  UNL     1     -32.447   7.819   1.182  1.00 20.00    -0.053 C 
HETATM    2  C2  UNL     1     -32.345   8.806   0.506  1.00 20.00    -0.021 C 
HETATM    3 BR9  UNL     1     -32.185  10.367  -0.565  1.00 20.00     0.010 Br
ENDROOT
BRANCH   1   4
HETATM    4  C7  UNL     1     -32.571   6.605   2.014  1.00 20.00     0.214 C 
HETATM    5  C3  UNL     1     -31.451   6.574   3.060  1.00 20.00     0.063 C 
HETATM    6  C4  UNL     1     -32.495   5.357   1.126  1.00 20.00     0.063 C 
BRANCH   4   7
HETATM    7  N8  UNL     1     -33.860   6.599   2.712  1.00 20.00     0.100 N 
HETATM    8  C5  UNL     1     -33.974   7.771   3.578  1.00 20.00     0.311 C 
HETATM    9  C6  UNL     1     -34.011   5.370   3.489  1.00 20.00     0.311 C 
ENDBRANCH   4   7
ENDBRANCH   1   4
TORSDOF 2
