REMARK  2 active torsions:
REMARK  status: ('A' for Active; 'I' for Inactive)
REMARK    1  A    between atoms: C1_1  and  C9_9 
REMARK    2  A    between atoms: C9_9  and  N10_10 
ROOT
HETATM    1  C2  UNL     1     -31.650   7.055   0.144  1.00 20.00     0.003 C 
HETATM    2  C3  UNL     1     -32.807   6.079   0.328  1.00 20.00     0.030 C 
HETATM    3  C4  UNL     1     -31.931   8.359   0.882  1.00 20.00     0.030 C 
HETATM    4  C5  UNL     1     -33.149   5.895   1.807  1.00 20.00     0.273 C 
HETATM    5  C6  UNL     1     -32.300   8.103   2.343  1.00 20.00     0.273 C 
HETATM    6  N10 UNL     1     -33.443   7.185   2.448  1.00 20.00     0.099 N 
ENDROOT
BRANCH   6   7
HETATM    7  C9  UNL     1     -33.814   6.988   3.849  1.00 20.00     0.287 C 
HETATM    8  C8  UNL     1     -34.087   8.304   4.553  1.00 20.00     0.051 C 
BRANCH   7   9
HETATM    9  C1  UNL     1     -35.049   6.101   3.871  1.00 20.00     0.155 C 
HETATM   10  C7  UNL     1     -34.893   4.744   4.507  1.00 20.00     0.093 C 
HETATM   11  O11 UNL     1     -36.138   6.474   3.434  1.00 20.00    -0.296 OA
ENDBRANCH   7   9
ENDBRANCH   6   7
TORSDOF 2
