REMARK  1 active torsions:
REMARK  status: ('A' for Active; 'I' for Inactive)
REMARK    1  A    between atoms: C11_11  and  N13_13 
ROOT
HETATM    1  C1  UNL     1     -33.739   3.178   4.625  1.00 20.00     0.089 C 
HETATM    2  C11 UNL     1     -34.699   4.268   4.455  1.00 20.00     0.395 C 
HETATM    3  N12 UNL     1     -32.980   2.311   4.761  1.00 20.00    -0.195 NA
ENDROOT
BRANCH   2   4
HETATM    4  N13 UNL     1     -34.026   5.492   4.033  1.00 20.00     0.101 N 
HETATM    5  C7  UNL     1     -34.964   6.596   3.856  1.00 20.00     0.274 C 
HETATM    6  C6  UNL     1     -34.208   7.921   3.679  1.00 20.00     0.035 C 
HETATM    7  C9  UNL     1     -32.905   7.775   2.871  1.00 20.00    -0.007 C 
HETATM    8  C4  UNL     1     -32.608   9.040   2.056  1.00 20.00     0.005 C 
HETATM    9  C10 UNL     1     -32.970   6.525   1.980  1.00 20.00     0.018 C 
HETATM   10  C2  UNL     1     -31.352   8.878   1.205  1.00 20.00     0.000 C 
HETATM   11  C3  UNL     1     -31.437   7.648   0.306  1.00 20.00     0.000 C 
HETATM   12  C5  UNL     1     -31.712   6.382   1.112  1.00 20.00     0.007 C 
HETATM   13  C8  UNL     1     -33.200   5.260   2.836  1.00 20.00     0.278 C 
ENDBRANCH   2   4
TORSDOF 1
