REMARK  0 active torsions:
REMARK  status: ('A' for Active; 'I' for Inactive)
ROOT
HETATM    1  C1  UNL     1     -34.701   7.573   4.038  1.00 20.00     0.028 C 
HETATM    2  C2  UNL     1     -33.096   8.883   2.649  1.00 20.00     0.033 C 
HETATM    3  C3  UNL     1     -32.187   7.411   0.917  1.00 20.00     0.046 C 
HETATM    4  C4  UNL     1     -34.840   6.115   4.055  1.00 20.00     0.112 C 
HETATM    5  C5  UNL     1     -33.591   7.707   3.316  1.00 20.00    -0.025 C 
HETATM    6  C6  UNL     1     -32.404   8.729   1.505  1.00 20.00     0.036 C 
HETATM    7  C7  UNL     1     -32.452   6.295   1.623  1.00 20.00     0.042 C 
HETATM    8  C8  UNL     1     -32.925   6.387   3.047  1.00 20.00     0.185 C 
HETATM    9  N9  UNL     1     -33.942   5.390   3.454  1.00 20.00    -0.286 NA
HETATM   10 CL10 UNL     1     -31.837  10.105   0.630  1.00 20.00    -0.084 Cl
HETATM   11 CL11 UNL     1     -32.173   4.730   0.963  1.00 20.00    -0.086 Cl
ENDROOT
TORSDOF 0
