REMARK  3 active torsions:
REMARK  status: ('A' for Active; 'I' for Inactive)
REMARK    1  A    between atoms: C1_1  and  C6_6 
REMARK    2  A    between atoms: C5_5  and  C7_7 
REMARK    3  A    between atoms: C6_6  and  C7_7 
ROOT
HETATM    1  C2  UNL     1     -33.363   5.742   2.393  1.00 20.00     0.033 C 
HETATM    2  C3  UNL     1     -33.949   4.766   3.391  1.00 20.00     0.168 C 
HETATM    3  C4  UNL     1     -34.820   6.881   3.836  1.00 20.00     0.172 C 
HETATM    4  C5  UNL     1     -33.482   7.053   3.140  1.00 20.00     0.012 C 
HETATM    5  O9  UNL     1     -34.946   5.482   4.135  1.00 20.00    -0.391 OA
ENDROOT
BRANCH   4   6
HETATM    6  C7  UNL     1     -33.406   8.282   2.254  1.00 20.00     0.013 C 
BRANCH   6   7
HETATM    7  C6  UNL     1     -32.065   8.374   1.533  1.00 20.00     0.070 C 
BRANCH   7   8
HETATM    8  C1  UNL     1     -31.949   9.609   0.673  1.00 20.00     0.231 C 
HETATM    9  O8  UNL     1     -32.810  10.477   0.577  1.00 20.00    -0.307 OA
ENDBRANCH   7   8
ENDBRANCH   6   7
ENDBRANCH   4   6
TORSDOF 3
