REMARK  3 active torsions:
REMARK  status: ('A' for Active; 'I' for Inactive)
REMARK    1  A    between atoms: C4_4  and  C7_7 
REMARK    2  A    between atoms: C6_6  and  N9_9 
REMARK    3  A    between atoms: C7_7  and  N9_9 
ROOT
HETATM    1  C1  UNL     1     -32.450   9.432   0.368  1.00 20.00     0.089 C 
HETATM    2  C6  UNL     1     -32.201   9.140   1.778  1.00 20.00     0.393 C 
HETATM    3  N8  UNL     1     -32.648   9.666  -0.751  1.00 20.00    -0.195 NA
ENDROOT
BRANCH   2   4
HETATM    4  N9  UNL     1     -31.789   7.764   1.956  1.00 20.00     0.100 N 
HETATM    5  H21 UNL     1     -31.313   7.649   2.841  1.00 20.00     0.317 HD
BRANCH   4   6
HETATM    6  C7  UNL     1     -32.976   6.875   1.960  1.00 20.00     0.221 C 
HETATM    7  C5  UNL     1     -32.539   5.467   1.584  1.00 20.00     0.043 C 
BRANCH   6   8
HETATM    8  C4  UNL     1     -33.623   6.916   3.337  1.00 20.00     0.018 A 
HETATM    9  C2  UNL     1     -35.067   6.532   3.507  1.00 20.00     0.007 A 
HETATM   10  C3  UNL     1     -33.984   5.637   4.041  1.00 20.00     0.007 A 
ENDBRANCH   6   8
ENDBRANCH   4   6
ENDBRANCH   2   4
TORSDOF 3
