REMARK  1 active torsions:
REMARK  status: ('A' for Active; 'I' for Inactive)
REMARK    1  A    between atoms: C7_7  and  O9_9 
ROOT
HETATM    1  C1  UNL     1     -31.906   8.441   1.244  1.00 20.00     0.097 C 
HETATM    2  C2  UNL     1     -33.026   7.866   3.272  1.00 20.00    -0.006 C 
HETATM    3  C3  UNL     1     -32.693   7.532   2.013  1.00 20.00     0.047 C 
HETATM    4  C4  UNL     1     -33.854   6.997   4.174  1.00 20.00     0.028 C 
HETATM    5  C5  UNL     1     -34.046   5.576   3.645  1.00 20.00     0.007 C 
HETATM    6  C6  UNL     1     -34.318   5.581   2.142  1.00 20.00     0.037 C 
HETATM    7  C7  UNL     1     -33.170   6.249   1.375  1.00 20.00     0.161 C 
HETATM    8  N8  UNL     1     -31.266   9.181   0.620  1.00 20.00    -0.192 NA
ENDROOT
BRANCH   7   9
HETATM    9  O9  UNL     1     -32.081   5.327   1.306  1.00 20.00    -0.390 OA
HETATM   10  H18 UNL     1     -32.429   4.522   0.892  1.00 20.00     0.210 HD
ENDBRANCH   7   9
TORSDOF 1
