REMARK  1 active torsions:
REMARK  status: ('A' for Active; 'I' for Inactive)
REMARK    1  A    between atoms: C7_7  and  N8_8 
ROOT
HETATM    1  C1  UNL     1     -32.616   9.395   0.307  1.00 20.00     0.013 C 
HETATM    2  C2  UNL     1     -32.456   8.395   0.952  1.00 20.00    -0.087 C 
HETATM    3  C7  UNL     1     -32.256   7.175   1.738  1.00 20.00     0.365 C 
ENDROOT
BRANCH   3   4
HETATM    4  N8  UNL     1     -33.485   6.793   2.416  1.00 20.00     0.106 N 
HETATM    5  C5  UNL     1     -33.488   5.385   2.816  1.00 20.00     0.351 C 
HETATM    6  C3  UNL     1     -34.490   5.399   3.941  1.00 20.00     0.156 C 
HETATM    7  C4  UNL     1     -34.823   6.804   4.352  1.00 20.00     0.110 C 
HETATM    8  O9  UNL     1     -34.972   4.397   4.450  1.00 20.00    -0.296 OA
HETATM    9  C6  UNL     1     -33.718   7.570   3.638  1.00 20.00     0.281 C 
ENDBRANCH   3   4
TORSDOF 1
