REMARK  0 active torsions:
REMARK  status: ('A' for Active; 'I' for Inactive)
ROOT
HETATM    1  C1  UNL     1     -32.847   5.238   2.197  1.00 20.00     0.047 C 
HETATM    2  C2  UNL     1     -32.206   6.070   1.369  1.00 20.00    -0.023 C 
HETATM    3  C3  UNL     1     -33.658   5.769   3.323  1.00 20.00     0.157 C 
HETATM    4  C4  UNL     1     -32.186   7.559   1.515  1.00 20.00     0.028 C 
HETATM    5  C5  UNL     1     -32.603   8.009   2.914  1.00 20.00     0.021 C 
HETATM    6  C6  UNL     1     -33.860   7.286   3.433  1.00 20.00     0.017 C 
HETATM    7  C7  UNL     1     -35.108   7.668   2.622  1.00 20.00     0.023 C 
HETATM    8  C8  UNL     1     -34.081   7.672   4.904  1.00 20.00     0.023 C 
HETATM    9  O9  UNL     1     -34.190   4.973   4.097  1.00 20.00    -0.292 OA
ENDROOT
TORSDOF 0
