REMARK  3 active torsions:
REMARK  status: ('A' for Active; 'I' for Inactive)
REMARK    1  A    between atoms: C6_6  and  C7_7 
REMARK    2  A    between atoms: C7_7  and  C8_8 
REMARK    3  A    between atoms: C7_7  and  O9_9 
ROOT
HETATM    1  C1  UNL     1     -32.221   9.380  -0.026  1.00 20.00     0.012 C 
HETATM    2  C2  UNL     1     -31.976   8.545   0.801  1.00 20.00    -0.115 C 
HETATM    3  C6  UNL     1     -31.670   7.521   1.817  1.00 20.00     0.125 C 
ENDROOT
BRANCH   3   4
HETATM    4  C7  UNL     1     -32.949   6.806   2.286  1.00 20.00     0.136 C 
BRANCH   4   5
HETATM    5  C8  UNL     1     -33.775   7.565   3.373  1.00 20.00    -0.025 C 
HETATM    6  C3  UNL     1     -34.991   6.706   3.782  1.00 20.00     0.017 C 
HETATM    7  C4  UNL     1     -32.946   7.851   4.639  1.00 20.00     0.017 C 
HETATM    8  C5  UNL     1     -34.303   8.902   2.817  1.00 20.00     0.017 C 
ENDBRANCH   4   5
BRANCH   4   9
HETATM    9  O9  UNL     1     -32.587   5.506   2.768  1.00 20.00    -0.394 OA
HETATM   10  H23 UNL     1     -31.971   5.654   3.500  1.00 20.00     0.210 HD
ENDBRANCH   4   9
ENDBRANCH   3   4
TORSDOF 3
