REMARK  0 active torsions:
REMARK  status: ('A' for Active; 'I' for Inactive)
ROOT
HETATM    1  C1  UNL     1     -33.360   7.467   3.150  1.00 20.00    -0.064 C 
HETATM    2  C2  UNL     1     -33.950   7.725   4.320  1.00 20.00     0.016 C 
HETATM    3  C3  UNL     1     -32.367   8.337   2.462  1.00 20.00     0.061 C 
HETATM    4  C4  UNL     1     -33.524   6.217   2.353  1.00 20.00     0.201 C 
HETATM    5  C5  UNL     1     -31.614   7.304   1.649  1.00 20.00     0.172 C 
HETATM    6  O6  UNL     1     -32.597   6.335   1.258  1.00 20.00    -0.387 OA
ENDROOT
TORSDOF 0
