REMARK  1 active torsions:
REMARK  status: ('A' for Active; 'I' for Inactive)
REMARK    1  A    between atoms: C1_1  and  C3_3 
ROOT
HETATM    1  C1  UNL     1     -33.648   6.268   3.054  1.00 20.00     0.035 C 
HETATM    2  C2  UNL     1     -33.527   7.592   3.133  1.00 20.00     0.053 C 
HETATM    3  C4  UNL     1     -32.819   5.761   1.941  1.00 20.00     0.073 C 
HETATM    4  C5  UNL     1     -31.995   7.002   1.622  1.00 20.00     0.180 C 
HETATM    5  C6  UNL     1     -34.178   8.557   4.058  1.00 20.00     0.077 C 
HETATM    6  O8  UNL     1     -32.669   8.147   2.180  1.00 20.00    -0.355 OA
ENDROOT
BRANCH   1   7
HETATM    7  C3  UNL     1     -34.461   5.403   3.891  1.00 20.00     0.250 C 
HETATM    8  O7  UNL     1     -35.512   5.843   4.384  1.00 20.00    -0.274 OA
HETATM    9 CL9  UNL     1     -33.890   3.763   4.152  1.00 20.00    -0.039 Cl
ENDBRANCH   1   7
TORSDOF 1
