REMARK  0 active torsions:
REMARK  status: ('A' for Active; 'I' for Inactive)
ROOT
HETATM    1  C1  UNL     1     -32.490   8.554   1.442  1.00 20.00     0.071 C 
HETATM    2  C2  UNL     1     -33.375   6.598   2.671  1.00 20.00     0.152 C 
HETATM    3  C3  UNL     1     -33.404   8.700   3.747  1.00 20.00     0.028 C 
HETATM    4  C4  UNL     1     -33.964   7.654   4.705  1.00 20.00     0.018 C 
HETATM    5  C5  UNL     1     -32.589   7.890   2.741  1.00 20.00     0.163 C 
HETATM    6  C6  UNL     1     -34.381   6.476   3.809  1.00 20.00     0.015 C 
HETATM    7  C7  UNL     1     -35.795   6.649   3.254  1.00 20.00     0.023 C 
HETATM    8  C8  UNL     1     -34.237   5.142   4.535  1.00 20.00     0.023 C 
HETATM    9  N9  UNL     1     -32.412   9.081   0.411  1.00 20.00    -0.196 NA
HETATM   10  O10 UNL     1     -33.219   5.747   1.802  1.00 20.00    -0.296 OA
ENDROOT
TORSDOF 0
