REMARK  1 active torsions:
REMARK  status: ('A' for Active; 'I' for Inactive)
REMARK    1  A    between atoms: C5_5  and  C10_10 
ROOT
HETATM    1  C1  UNL     1     -33.928   7.135   2.781  1.00 20.00     0.166 C 
HETATM    2  C2  UNL     1     -33.732   8.320   1.860  1.00 20.00     0.086 C 
HETATM    3  C3  UNL     1     -31.665   7.178   0.966  1.00 20.00     0.009 C 
HETATM    4  C4  UNL     1     -31.854   6.028   1.957  1.00 20.00     0.052 C 
HETATM    5  C5  UNL     1     -32.250   8.486   1.515  1.00 20.00    -0.004 C 
HETATM    6  C6  UNL     1     -33.329   5.817   2.306  1.00 20.00     0.159 C 
HETATM    7  C7  UNL     1     -33.493   4.712   3.342  1.00 20.00     0.060 C 
HETATM    8  O11 UNL     1     -34.592   7.235   3.812  1.00 20.00    -0.294 OA
HETATM    9  F12 UNL     1     -33.976   5.410   1.173  1.00 20.00    -0.235 F 
ENDROOT
BRANCH   5  10
HETATM   10  C10 UNL     1     -32.057   9.625   0.516  1.00 20.00    -0.018 C 
HETATM   11  C8  UNL     1     -32.794   9.326  -0.788  1.00 20.00     0.010 C 
HETATM   12  C9  UNL     1     -32.534  10.948   1.111  1.00 20.00     0.010 C 
ENDBRANCH   5  10
TORSDOF 1
