REMARK  4 active torsions:
REMARK  status: ('A' for Active; 'I' for Inactive)
REMARK    1  A    between atoms: C4_4  and  C5_5 
REMARK    2  A    between atoms: C5_5  and  C6_6 
REMARK    3  A    between atoms: C6_6  and  C7_7 
REMARK    4  A    between atoms: C7_7  and  O8_8 
ROOT
HETATM    1  C1  UNL     1     -33.049   9.557   0.889  1.00 20.00     0.012 C 
HETATM    2  C2  UNL     1     -32.502   8.532   1.190  1.00 20.00    -0.117 C 
HETATM    3  C4  UNL     1     -31.828   7.279   1.559  1.00 20.00     0.093 C 
ENDROOT
BRANCH   3   4
HETATM    4  C5  UNL     1     -32.843   6.181   1.882  1.00 20.00     0.014 C 
BRANCH   4   5
HETATM    5  C6  UNL     1     -33.767   6.600   3.026  1.00 20.00     0.032 C 
BRANCH   5   6
HETATM    6  C7  UNL     1     -34.830   5.552   3.371  1.00 20.00     0.114 C 
HETATM    7  C3  UNL     1     -34.244   4.230   3.849  1.00 20.00     0.039 C 
BRANCH   6   8
HETATM    8  O8  UNL     1     -35.641   6.094   4.414  1.00 20.00    -0.396 OA
HETATM    9  H20 UNL     1     -36.336   5.441   4.586  1.00 20.00     0.210 HD
ENDBRANCH   6   8
ENDBRANCH   5   6
ENDBRANCH   4   5
ENDBRANCH   3   4
TORSDOF 4
