REMARK  2 active torsions:
REMARK  status: ('A' for Active; 'I' for Inactive)
REMARK    1  A    between atoms: C3_3  and  C8_8 
REMARK    2  A    between atoms: C8_8  and  N10_10 
ROOT
HETATM    1  C1  UNL     1     -33.031   5.664   1.247  1.00 20.00     0.100 C 
HETATM    2  C8  UNL     1     -32.685   6.634   2.301  1.00 20.00     0.356 C 
HETATM    3  N9  UNL     1     -33.301   4.896   0.419  1.00 20.00    -0.195 NA
ENDROOT
BRANCH   2   4
HETATM    4  C3  UNL     1     -32.237   7.945   1.664  1.00 20.00    -0.041 C 
HETATM    5  C2  UNL     1     -33.101   8.636   0.891  1.00 20.00    -0.025 C 
HETATM    6  C4  UNL     1     -32.861   9.910   0.147  1.00 20.00     0.036 C 
HETATM    7  C5  UNL     1     -30.823   8.392   1.946  1.00 20.00     0.046 C 
ENDBRANCH   2   4
BRANCH   2   8
HETATM    8  N10 UNL     1     -33.816   6.817   3.213  1.00 20.00     0.102 N 
HETATM    9  C6  UNL     1     -33.476   7.778   4.260  1.00 20.00     0.311 C 
HETATM   10  C7  UNL     1     -34.208   5.537   3.800  1.00 20.00     0.311 C 
ENDBRANCH   2   8
TORSDOF 2
