REMARK  3 active torsions:
REMARK  status: ('A' for Active; 'I' for Inactive)
REMARK    1  A    between atoms: C6_6  and  N8_8 
REMARK    2  A    between atoms: C6_6  and  O9_9 
REMARK    3  A    between atoms: C7_7  and  O9_9 
ROOT
HETATM    1  O9  UNL     1     -33.625   6.235   2.990  1.00 20.00    -0.352 OA
ENDROOT
BRANCH   1   2
HETATM    2  C6  UNL     1     -33.111   7.397   2.329  1.00 20.00     0.440 C 
BRANCH   2   3
HETATM    3  N8  UNL     1     -31.850   7.121   1.625  1.00 20.00     0.102 N 
HETATM    4  C4  UNL     1     -31.347   8.340   0.990  1.00 20.00     0.312 C 
HETATM    5  C5  UNL     1     -32.028   6.069   0.622  1.00 20.00     0.312 C 
ENDBRANCH   2   3
ENDBRANCH   1   2
BRANCH   1   6
HETATM    6  C7  UNL     1     -34.841   6.511   3.674  1.00 20.00     0.052 C 
HETATM    7  C1  UNL     1     -35.872   6.995   2.655  1.00 20.00     0.045 C 
HETATM    8  C2  UNL     1     -35.304   5.214   4.332  1.00 20.00     0.045 C 
HETATM    9  C3  UNL     1     -34.573   7.584   4.728  1.00 20.00     0.045 C 
ENDBRANCH   1   6
TORSDOF 3
