REMARK  0 active torsions:
REMARK  status: ('A' for Active; 'I' for Inactive)
ROOT
HETATM    1  C1  UNL     1     -34.929   6.281   3.906  1.00 20.00     0.003 C 
HETATM    2  C2  UNL     1     -34.439   7.688   4.239  1.00 20.00     0.001 C 
HETATM    3  C3  UNL     1     -33.806   5.418   3.342  1.00 20.00     0.041 C 
HETATM    4  C4  UNL     1     -33.792   8.356   3.022  1.00 20.00     0.012 C 
HETATM    5  C5  UNL     1     -33.465   5.541   0.775  1.00 20.00     0.207 A 
HETATM    6  C6  UNL     1     -33.161   6.095   2.157  1.00 20.00     0.089 A 
HETATM    7  C7  UNL     1     -32.646   7.521   2.390  1.00 20.00    -0.014 C 
HETATM    8  C8  UNL     1     -32.211   8.233   1.093  1.00 20.00     0.018 C 
HETATM    9  C9  UNL     1     -31.420   7.495   3.329  1.00 20.00     0.018 C 
HETATM   10  O10 UNL     1     -32.240   5.244   1.453  1.00 20.00    -0.374 OA
ENDROOT
TORSDOF 0
