REMARK  3 active torsions:
REMARK  status: ('A' for Active; 'I' for Inactive)
REMARK    1  A    between atoms: C3_3  and  C6_6 
REMARK    2  A    between atoms: C3_3  and  O11_11 
REMARK    3  A    between atoms: C8_8  and  O11_11 
ROOT
HETATM    1  C1  UNL     1     -35.226   6.443   4.257  1.00 20.00    -0.025 C 
HETATM    2  C2  UNL     1     -35.175   5.224   4.809  1.00 20.00    -0.005 C 
HETATM    3  C4  UNL     1     -34.295   6.834   3.150  1.00 20.00     0.069 C 
HETATM    4  C5  UNL     1     -34.167   4.201   4.375  1.00 20.00     0.196 C 
HETATM    5  C6  UNL     1     -33.619   5.604   2.546  1.00 20.00     0.224 C 
HETATM    6  O10 UNL     1     -33.114   4.768   3.585  1.00 20.00    -0.372 OA
ENDROOT
BRANCH   5   7
HETATM    7  C3  UNL     1     -32.420   5.989   1.745  1.00 20.00     0.288 C 
HETATM    8  O9  UNL     1     -31.666   5.186   1.212  1.00 20.00    -0.262 OA
BRANCH   7   9
HETATM    9  O11 UNL     1     -32.313   7.348   1.709  1.00 20.00    -0.320 OA
BRANCH   9  10
HETATM   10  C8  UNL     1     -31.703   7.885   0.531  1.00 20.00     0.174 C 
HETATM   11  C7  UNL     1     -32.278   9.260   0.262  1.00 20.00     0.034 C 
ENDBRANCH   9  10
ENDBRANCH   7   9
ENDBRANCH   5   7
TORSDOF 3
