REMARK  2 active torsions:
REMARK  status: ('A' for Active; 'I' for Inactive)
REMARK    1  A    between atoms: C4_4  and  C6_6 
REMARK    2  A    between atoms: C5_5  and  C7_7 
ROOT
HETATM    1  C1  UNL     1     -32.418   5.969   1.413  1.00 20.00     0.007 C 
HETATM    2  C2  UNL     1     -31.374   6.958   1.991  1.00 20.00     0.007 C 
HETATM    3  C3  UNL     1     -33.355   8.146   1.461  1.00 20.00     0.014 C 
HETATM    4  C4  UNL     1     -33.759   6.680   1.702  1.00 20.00     0.017 C 
HETATM    5  C5  UNL     1     -32.254   8.106   2.536  1.00 20.00     0.017 C 
ENDROOT
BRANCH   4   6
HETATM    6  C6  UNL     1     -33.984   6.618   3.205  1.00 20.00     0.155 A 
HETATM    7  C7  UNL     1     -32.978   7.571   3.762  1.00 20.00     0.155 A 
HETATM    8  O8  UNL     1     -34.382   7.818   3.874  1.00 20.00    -0.375 OA
ENDBRANCH   4   6
TORSDOF 2
