REMARK  1 active torsions:
REMARK  status: ('A' for Active; 'I' for Inactive)
REMARK    1  A    between atoms: C3_3  and  C8_8 
ROOT
HETATM    1  C1  UNL     1     -32.952   8.196   4.000  1.00 20.00     0.302 C 
HETATM    2  C2  UNL     1     -33.606   6.135   2.507  1.00 20.00     0.209 C 
HETATM    3  C3  UNL     1     -32.394   8.188   2.569  1.00 20.00     0.149 C 
HETATM    4  C4  UNL     1     -34.781   6.739   3.306  1.00 20.00     0.171 C 
HETATM    5  C5  UNL     1     -35.290   5.707   4.322  1.00 20.00     0.051 C 
HETATM    6  C6  UNL     1     -35.927   7.116   2.352  1.00 20.00     0.051 C 
HETATM    7  N9  UNL     1     -34.395   7.982   3.999  1.00 20.00     0.097 N 
HETATM    8  O10 UNL     1     -32.945   7.146   1.752  1.00 20.00    -0.382 OA
HETATM    9  H27 UNL     1     -34.714   7.931   4.966  1.00 20.00     0.317 HD
ENDROOT
BRANCH   3  10
HETATM   10  C8  UNL     1     -32.650   9.505   1.844  1.00 20.00     0.029 C 
HETATM   11  C7  UNL     1     -32.110   9.487   0.449  1.00 20.00     0.007 C 
ENDBRANCH   3  10
TORSDOF 1
