REMARK  0 active torsions:
REMARK  status: ('A' for Active; 'I' for Inactive)
ROOT
HETATM    1  C1  UNL     1     -32.459   6.995   0.715  1.00 20.00    -0.003 C 
HETATM    2  C2  UNL     1     -33.280   6.133   1.542  1.00 20.00     0.011 C 
HETATM    3  C3  UNL     1     -32.103   8.101   1.398  1.00 20.00    -0.017 C 
HETATM    4  C4  UNL     1     -33.373   6.720   2.734  1.00 20.00    -0.005 C 
HETATM    5  C5  UNL     1     -34.340   6.685   3.836  1.00 20.00     0.156 C 
HETATM    6  C6  UNL     1     -34.387   8.067   4.449  1.00 20.00     0.084 C 
HETATM    7  C7  UNL     1     -33.612   8.922   3.411  1.00 20.00     0.021 C 
HETATM    8  C8  UNL     1     -32.569   7.977   2.816  1.00 20.00     0.045 C 
HETATM    9  O9  UNL     1     -34.987   5.713   4.180  1.00 20.00    -0.293 OA
ENDROOT
TORSDOF 0
