REMARK  3 active torsions:
REMARK  status: ('A' for Active; 'I' for Inactive)
REMARK    1  A    between atoms: C3_3  and  C6_6 
REMARK    2  A    between atoms: C3_3  and  C7_7 
REMARK    3  A    between atoms: C5_5  and  C7_7 
ROOT
HETATM    1  C1  UNL     1     -34.244   3.800   3.986  1.00 20.00     0.012 C 
HETATM    2  C2  UNL     1     -34.499   4.973   3.994  1.00 20.00    -0.117 C 
HETATM    3  C5  UNL     1     -34.815   6.410   4.004  1.00 20.00     0.100 C 
ENDROOT
BRANCH   3   4
HETATM    4  C7  UNL     1     -33.588   7.265   3.699  1.00 20.00     0.090 C 
BRANCH   4   5
HETATM    5  C3  UNL     1     -32.976   6.999   2.329  1.00 20.00     0.127 C 
HETATM    6  O8  UNL     1     -33.454   6.184   1.541  1.00 20.00    -0.298 OA
BRANCH   5   7
HETATM    7  C6  UNL     1     -31.746   7.826   1.991  1.00 20.00     0.074 C 
HETATM    8  C4  UNL     1     -31.948   8.706   0.771  1.00 20.00     0.013 C 
ENDBRANCH   5   7
ENDBRANCH   4   5
ENDBRANCH   3   4
TORSDOF 3
