REMARK  1 active torsions:
REMARK  status: ('A' for Active; 'I' for Inactive)
REMARK    1  A    between atoms: C1_1  and  S9_9 
ROOT
HETATM    1  C1  UNL     1     -33.087   7.042   2.298  1.00 20.00     0.047 A 
HETATM    2  C2  UNL     1     -32.966   5.700   1.890  1.00 20.00     0.069 A 
HETATM    3  C3  UNL     1     -33.842   6.985   3.444  1.00 20.00     0.044 A 
HETATM    4  C4  UNL     1     -32.256   5.163   0.714  1.00 20.00     0.074 C 
HETATM    5  C5  UNL     1     -34.323   8.043   4.355  1.00 20.00     0.071 C 
HETATM    6  C6  UNL     1     -34.885   5.091   4.726  1.00 20.00     0.179 C 
HETATM    7  N7  UNL     1     -33.594   4.853   2.710  1.00 20.00    -0.176 NA
HETATM    8  N8  UNL     1     -34.117   5.665   3.645  1.00 20.00    -0.277 N 
ENDROOT
BRANCH   1   9
HETATM    9  S9  UNL     1     -32.425   8.446   1.518  1.00 20.00    -0.139 SA
HETATM   10  H19 UNL     1     -32.874   9.395   2.364  1.00 20.00     0.107 HD
ENDBRANCH   1   9
TORSDOF 1
