REMARK  2 active torsions:
REMARK  status: ('A' for Active; 'I' for Inactive)
REMARK    1  A    between atoms: C1_1  and  C5_5 
REMARK       I    between atoms: C1_1  and  N7_7 
REMARK    2  A    between atoms: C5_5  and  C6_6 
ROOT
HETATM    1  C1  UNL     1     -32.830   6.529   1.824  1.00 20.00     0.220 C 
HETATM    2  C2  UNL     1     -35.054   6.588   4.399  1.00 20.00     0.040 C 
HETATM    3  C3  UNL     1     -34.383   5.483   3.574  1.00 20.00     0.127 C 
HETATM    4  C4  UNL     1     -33.965   7.554   3.914  1.00 20.00     0.127 C 
HETATM    5  N7  UNL     1     -33.623   6.540   2.937  1.00 20.00    -0.352 N 
HETATM    6  O8  UNL     1     -32.623   5.533   1.132  1.00 20.00    -0.273 OA
ENDROOT
BRANCH   1   7
HETATM    7  C5  UNL     1     -32.213   7.860   1.488  1.00 20.00     0.118 C 
BRANCH   7   8
HETATM    8  C6  UNL     1     -33.118   8.652   0.565  1.00 20.00     0.124 C 
HETATM    9 CL9  UNL     1     -32.426  10.247   0.180  1.00 20.00    -0.130 Cl
ENDBRANCH   7   8
ENDBRANCH   1   7
TORSDOF 2
