REMARK  2 active torsions:
REMARK  status: ('A' for Active; 'I' for Inactive)
REMARK    1  A    between atoms: C6_6  and  C7_7 
REMARK    2  A    between atoms: C7_7  and  N9_9 
ROOT
HETATM    1  C1  UNL     1     -33.923   5.358   3.594  1.00 20.00     0.101 C 
HETATM    2  C4  UNL     1     -34.938   6.784   1.871  1.00 20.00     0.066 C 
HETATM    3  C7  UNL     1     -33.886   6.707   2.990  1.00 20.00     0.243 C 
HETATM    4  N8  UNL     1     -33.955   4.299   4.068  1.00 20.00    -0.195 NA
ENDROOT
BRANCH   3   5
HETATM    5  C6  UNL     1     -32.458   7.066   2.466  1.00 20.00     0.030 C 
HETATM    6  C2  UNL     1     -32.356   8.479   1.873  1.00 20.00     0.013 C 
HETATM    7  C3  UNL     1     -31.922   6.055   1.438  1.00 20.00     0.013 C 
ENDBRANCH   3   5
BRANCH   3   8
HETATM    8  N9  UNL     1     -34.274   7.684   3.998  1.00 20.00     0.102 N 
HETATM    9  C5  UNL     1     -33.359   7.654   5.131  1.00 20.00     0.309 C 
HETATM   10  H23 UNL     1     -35.217   7.475   4.322  1.00 20.00     0.317 HD
ENDBRANCH   3   8
TORSDOF 2
