REMARK  2 active torsions:
REMARK  status: ('A' for Active; 'I' for Inactive)
REMARK    1  A    between atoms: C2_2  and  C4_4 
REMARK    2  A    between atoms: C2_2  and  C8_8 
ROOT
HETATM    1  C1  UNL     1     -32.889   7.208   2.471  1.00 20.00     0.071 C 
HETATM    2  C7  UNL     1     -33.313   8.058   4.744  1.00 20.00     0.033 C 
HETATM    3  C8  UNL     1     -33.900   7.341   3.534  1.00 20.00     0.158 C 
HETATM    4  N9  UNL     1     -32.095   7.105   1.631  1.00 20.00    -0.196 NA
ENDROOT
BRANCH   3   5
HETATM    5  C2  UNL     1     -34.424   5.980   3.957  1.00 20.00     0.148 C 
HETATM    6  O10 UNL     1     -35.558   5.774   4.373  1.00 20.00    -0.296 OA
BRANCH   5   7
HETATM    7  C4  UNL     1     -33.456   4.846   3.863  1.00 20.00     0.061 A 
HETATM    8  C3  UNL     1     -33.734   3.753   2.885  1.00 20.00     0.017 A 
HETATM    9  C5  UNL     1     -33.893   3.497   4.360  1.00 20.00    -0.007 A 
HETATM   10  C6  UNL     1     -32.918   2.631   5.080  1.00 20.00     0.011 C 
ENDBRANCH   5   7
ENDBRANCH   3   5
TORSDOF 2
