REMARK  3 active torsions:
REMARK  status: ('A' for Active; 'I' for Inactive)
REMARK    1  A    between atoms: C2_2  and  C7_7 
REMARK    2  A    between atoms: C2_2  and  C8_8 
REMARK    3  A    between atoms: C7_7  and  C9_9 
ROOT
HETATM    1  C1  UNL     1     -34.287   7.217   4.291  1.00 20.00     0.071 C 
HETATM    2  C3  UNL     1     -34.180   4.768   4.025  1.00 20.00     0.033 C 
HETATM    3  C8  UNL     1     -34.460   6.102   3.344  1.00 20.00     0.158 C 
HETATM    4  N10 UNL     1     -34.155   8.097   5.036  1.00 20.00    -0.196 NA
ENDROOT
BRANCH   3   5
HETATM    5  C2  UNL     1     -33.533   6.258   2.144  1.00 20.00     0.144 C 
HETATM    6  O11 UNL     1     -32.682   5.413   1.860  1.00 20.00    -0.296 OA
BRANCH   5   7
HETATM    7  C7  UNL     1     -33.677   7.527   1.314  1.00 20.00     0.088 C 
BRANCH   7   8
HETATM    8  C9  UNL     1     -32.435   8.446   1.312  1.00 20.00    -0.045 C 
HETATM    9  C4  UNL     1     -31.925   8.693  -0.117  1.00 20.00     0.015 C 
HETATM   10  C5  UNL     1     -31.299   7.853   2.161  1.00 20.00     0.015 C 
HETATM   11  C6  UNL     1     -32.843   9.800   1.926  1.00 20.00     0.015 C 
ENDBRANCH   7   8
ENDBRANCH   5   7
ENDBRANCH   3   5
TORSDOF 3
