REMARK  3 active torsions:
REMARK  status: ('A' for Active; 'I' for Inactive)
REMARK    1  A    between atoms: C2_2  and  C5_5 
REMARK    2  A    between atoms: C2_2  and  C7_7 
REMARK    3  A    between atoms: C5_5  and  C6_6 
ROOT
HETATM    1  C1  UNL     1     -33.916   4.851   3.992  1.00 20.00     0.071 C 
HETATM    2  C4  UNL     1     -35.495   6.565   3.189  1.00 20.00     0.033 C 
HETATM    3  C7  UNL     1     -34.042   6.235   3.505  1.00 20.00     0.158 C 
HETATM    4  N8  UNL     1     -33.815   3.761   4.380  1.00 20.00    -0.196 NA
ENDROOT
BRANCH   3   5
HETATM    5  C2  UNL     1     -33.188   6.456   2.260  1.00 20.00     0.144 C 
HETATM    6  O9  UNL     1     -32.965   5.551   1.455  1.00 20.00    -0.297 OA
BRANCH   5   7
HETATM    7  C5  UNL     1     -32.618   7.857   2.080  1.00 20.00     0.079 C 
BRANCH   7   8
HETATM    8  C6  UNL     1     -31.784   8.023   0.811  1.00 20.00     0.003 C 
HETATM    9  C3  UNL     1     -31.173   9.413   0.694  1.00 20.00     0.005 C 
ENDBRANCH   7   8
ENDBRANCH   5   7
ENDBRANCH   3   5
TORSDOF 3
