REMARK  3 active torsions:
REMARK  status: ('A' for Active; 'I' for Inactive)
REMARK    1  A    between atoms: C2_2  and  C4_4 
REMARK    2  A    between atoms: C2_2  and  C9_9 
REMARK    3  A    between atoms: C8_8  and  C9_9 
ROOT
HETATM    1  C1  UNL     1     -33.982   7.496   4.183  1.00 20.00     0.071 C 
HETATM    2  C9  UNL     1     -34.131   6.428   3.177  1.00 20.00     0.162 C 
HETATM    3  N10 UNL     1     -33.868   8.338   4.973  1.00 20.00    -0.196 NA
ENDROOT
BRANCH   2   4
HETATM    4  C2  UNL     1     -33.062   6.530   2.100  1.00 20.00     0.148 C 
HETATM    5  O11 UNL     1     -32.994   5.795   1.121  1.00 20.00    -0.296 OA
BRANCH   4   6
HETATM    6  C4  UNL     1     -32.041   7.604   2.287  1.00 20.00     0.061 A 
HETATM    7  C3  UNL     1     -32.371   8.989   1.832  1.00 20.00     0.017 A 
HETATM    8  C5  UNL     1     -31.335   8.184   1.102  1.00 20.00    -0.007 A 
HETATM    9  C6  UNL     1     -31.590   7.734  -0.296  1.00 20.00     0.011 C 
ENDBRANCH   4   6
ENDBRANCH   2   4
BRANCH   2  10
HETATM   10  C8  UNL     1     -34.136   5.034   3.822  1.00 20.00     0.022 C 
HETATM   11  C7  UNL     1     -35.223   4.823   4.872  1.00 20.00     0.007 C 
ENDBRANCH   2  10
TORSDOF 3
