REMARK  2 active torsions:
REMARK  status: ('A' for Active; 'I' for Inactive)
REMARK    1  A    between atoms: C1_1  and  C3_3 
REMARK    2  A    between atoms: C7_7  and  C9_9 
ROOT
HETATM    1  C1  UNL     1     -33.846   6.816   2.853  1.00 20.00    -0.002 C 
HETATM    2  C2  UNL     1     -33.332   5.613   2.541  1.00 20.00     0.021 C 
HETATM    3  C4  UNL     1     -33.250   8.107   2.353  1.00 20.00     0.047 C 
HETATM    4  C5  UNL     1     -32.137   5.445   1.639  1.00 20.00     0.052 C 
HETATM    5  C6  UNL     1     -31.766   6.717   0.872  1.00 20.00     0.010 C 
HETATM    6  C7  UNL     1     -31.830   7.946   1.784  1.00 20.00    -0.010 C 
HETATM    7 CL11 UNL     1     -33.976   4.111   3.121  1.00 20.00    -0.088 Cl
ENDROOT
BRANCH   1   8
HETATM    8  C3  UNL     1     -35.026   6.965   3.720  1.00 20.00     0.267 C 
HETATM    9  O10 UNL     1     -35.292   6.165   4.603  1.00 20.00    -0.302 OA
ENDBRANCH   1   8
BRANCH   6  10
HETATM   10  C9  UNL     1     -31.397   9.207   1.041  1.00 20.00     0.000 C 
HETATM   11  C8  UNL     1     -32.291   9.497  -0.121  1.00 20.00     0.005 C 
ENDBRANCH   6  10
TORSDOF 2
