REMARK  3 active torsions:
REMARK  status: ('A' for Active; 'I' for Inactive)
REMARK    1  A    between atoms: C4_4  and  N9_9 
REMARK    2  A    between atoms: C6_6  and  N9_9 
REMARK    3  A    between atoms: C7_7  and  N9_9 
ROOT
HETATM    1  C1  UNL     1     -33.373   6.922   3.228  1.00 20.00     0.089 C 
HETATM    2  C6  UNL     1     -32.431   7.878   2.649  1.00 20.00     0.396 C 
HETATM    3  N8  UNL     1     -34.119   6.163   3.690  1.00 20.00    -0.195 NA
ENDROOT
BRANCH   2   4
HETATM    4  N9  UNL     1     -32.495   7.855   1.189  1.00 20.00     0.105 N 
BRANCH   4   5
HETATM    5  C4  UNL     1     -31.939   9.088   0.633  1.00 20.00     0.224 A 
HETATM    6  C2  UNL     1     -32.282   9.513  -0.768  1.00 20.00     0.038 A 
HETATM    7  C3  UNL     1     -32.818  10.286   0.401  1.00 20.00     0.038 A 
ENDBRANCH   4   5
BRANCH   4   8
HETATM    8  C7  UNL     1     -31.783   6.690   0.664  1.00 20.00     0.269 C 
HETATM    9  C5  UNL     1     -32.338   5.424   1.221  1.00 20.00     0.037 C 
ENDBRANCH   4   8
ENDBRANCH   2   4
TORSDOF 3
