REMARK  3 active torsions:
REMARK  status: ('A' for Active; 'I' for Inactive)
REMARK    1  A    between atoms: C1_1  and  C4_4 
REMARK       I    between atoms: C1_1  and  N7_7 
REMARK    2  A    between atoms: C5_5  and  C6_6 
REMARK    3  A    between atoms: C6_6  and  N7_7 
ROOT
HETATM    1  C1  UNL     1     -32.978   6.679   2.146  1.00 20.00     0.233 C 
HETATM    2  C3  UNL     1     -33.554   7.674   4.413  1.00 20.00     0.152 C 
HETATM    3  N7  UNL     1     -33.737   6.719   3.323  1.00 20.00    -0.356 N 
HETATM    4  O8  UNL     1     -33.168   5.853   1.250  1.00 20.00    -0.272 OA
ENDROOT
BRANCH   3   5
HETATM    5  C6  UNL     1     -34.811   5.753   3.518  1.00 20.00     0.125 C 
BRANCH   5   6
HETATM    6  C5  UNL     1     -34.331   4.483   4.211  1.00 20.00     0.015 C 
HETATM    7  C2  UNL     1     -33.231   3.771   3.438  1.00 20.00     0.006 C 
ENDBRANCH   5   6
ENDBRANCH   3   5
BRANCH   1   8
HETATM    8  C4  UNL     1     -31.889   7.728   2.034  1.00 20.00     0.217 C 
HETATM    9 CL9  UNL     1     -32.519   9.213   1.292  1.00 20.00    -0.121 Cl
ENDBRANCH   1   8
TORSDOF 3
