REMARK  0 active torsions:
REMARK  status: ('A' for Active; 'I' for Inactive)
ROOT
HETATM    1  C1  UNL     1     -34.376   7.861   3.539  1.00 20.00     0.039 A 
HETATM    2  C2  UNL     1     -34.586   6.577   4.044  1.00 20.00     0.022 A 
HETATM    3  C3  UNL     1     -33.211   5.612   2.282  1.00 20.00     0.029 A 
HETATM    4  C4  UNL     1     -33.003   6.891   1.797  1.00 20.00    -0.021 A 
HETATM    5  C5  UNL     1     -33.576   7.989   2.420  1.00 20.00     0.075 A 
HETATM    6  C6  UNL     1     -34.006   5.459   3.421  1.00 20.00     0.011 A 
HETATM    7  C7  UNL     1     -32.266   7.334   0.593  1.00 20.00     0.073 C 
HETATM    8  C8  UNL     1     -32.218   8.844   0.878  1.00 20.00     0.129 C 
HETATM    9  C9  UNL     1     -32.377   9.680  -0.381  1.00 20.00     0.040 C 
HETATM   10  O10 UNL     1     -33.286   9.179   1.804  1.00 20.00    -0.345 OA
HETATM   11 BR11 UNL     1     -34.315   3.731   4.123  1.00 20.00    -0.051 Br
ENDROOT
TORSDOF 0
