REMARK  2 active torsions:
REMARK  status: ('A' for Active; 'I' for Inactive)
REMARK    1  A    between atoms: C7_7  and  C12_12 
REMARK    2  A    between atoms: C11_11  and  C12_12 
ROOT
HETATM    1  C1  UNL     1     -32.482   9.667  -0.343  1.00 20.00     0.064 C 
HETATM    2  C2  UNL     1     -31.732   9.875   2.011  1.00 20.00     0.019 C 
HETATM    3  C3  UNL     1     -31.424   7.705   0.743  1.00 20.00     0.019 C 
HETATM    4  C4  UNL     1     -32.943   9.279   2.732  1.00 20.00     0.007 C 
HETATM    5  C5  UNL     1     -32.636   7.114   1.467  1.00 20.00     0.007 C 
HETATM    6  C6  UNL     1     -31.473   9.234   0.642  1.00 20.00     0.093 C 
HETATM    7  C7  UNL     1     -32.842   7.753   2.845  1.00 20.00    -0.007 C 
HETATM    8  N13 UNL     1     -33.275  10.008  -1.119  1.00 20.00    -0.197 NA
ENDROOT
BRANCH   7   9
HETATM    9  C12 UNL     1     -34.084   7.180   3.525  1.00 20.00    -0.044 C 
HETATM   10  C9  UNL     1     -34.231   7.816   4.922  1.00 20.00     0.015 C 
HETATM   11  C10 UNL     1     -35.326   7.538   2.684  1.00 20.00     0.015 C 
BRANCH   9  12
HETATM   12  C11 UNL     1     -33.923   5.638   3.638  1.00 20.00     0.004 C 
HETATM   13  C8  UNL     1     -35.074   4.885   4.295  1.00 20.00     0.006 C 
ENDBRANCH   9  12
ENDBRANCH   7   9
TORSDOF 2
