REMARK  0 active torsions:
REMARK  status: ('A' for Active; 'I' for Inactive)
ROOT
HETATM    1  C1  UNL     1     -32.500   9.149   1.237  1.00 20.00     0.064 C 
HETATM    2  C2  UNL     1     -32.890   7.988   3.397  1.00 20.00     0.023 C 
HETATM    3  C3  UNL     1     -31.653   6.817   1.510  1.00 20.00     0.028 C 
HETATM    4  C4  UNL     1     -33.759   5.794   2.496  1.00 20.00     0.013 C 
HETATM    5  C5  UNL     1     -31.965   8.159   2.188  1.00 20.00     0.094 C 
HETATM    6  C6  UNL     1     -34.144   7.158   3.088  1.00 20.00    -0.017 C 
HETATM    7  C7  UNL     1     -32.871   5.898   1.236  1.00 20.00    -0.046 C 
HETATM    8  C8  UNL     1     -34.984   6.971   4.353  1.00 20.00     0.010 C 
HETATM    9  C9  UNL     1     -32.350   4.489   0.882  1.00 20.00     0.015 C 
HETATM   10  C10 UNL     1     -33.696   6.393   0.032  1.00 20.00     0.015 C 
HETATM   11  N11 UNL     1     -32.922   9.929   0.488  1.00 20.00    -0.197 NA
ENDROOT
TORSDOF 0
