REMARK  3 active torsions:
REMARK  status: ('A' for Active; 'I' for Inactive)
REMARK    1  A    between atoms: C6_6  and  C8_8 
REMARK    2  A    between atoms: C7_7  and  C8_8 
REMARK    3  A    between atoms: C8_8  and  N10_10 
ROOT
HETATM    1  C1  UNL     1     -33.900   6.617   3.375  1.00 20.00     0.102 C 
HETATM    2  C8  UNL     1     -32.952   7.401   2.554  1.00 20.00     0.244 C 
HETATM    3  N9  UNL     1     -34.645   6.002   4.019  1.00 20.00    -0.194 NA
ENDROOT
BRANCH   2   4
HETATM    4  C6  UNL     1     -31.901   8.080   3.471  1.00 20.00     0.053 C 
HETATM    5  C2  UNL     1     -32.477   9.044   4.507  1.00 20.00     0.009 C 
ENDBRANCH   2   4
BRANCH   2   6
HETATM    6  C7  UNL     1     -33.711   8.509   1.780  1.00 20.00     0.053 C 
HETATM    7  C3  UNL     1     -32.836   9.392   0.891  1.00 20.00     0.009 C 
ENDBRANCH   2   6
BRANCH   2   8
HETATM    8  N10 UNL     1     -32.285   6.519   1.614  1.00 20.00     0.103 N 
HETATM    9  C4  UNL     1     -33.256   5.872   0.726  1.00 20.00     0.311 C 
HETATM   10  C5  UNL     1     -31.495   5.505   2.319  1.00 20.00     0.311 C 
ENDBRANCH   2   8
TORSDOF 3
