REMARK  4 active torsions:
REMARK  status: ('A' for Active; 'I' for Inactive)
REMARK    1  A    between atoms: C1_1  and  C8_8 
REMARK    2  A    between atoms: C7_7  and  N10_10 
REMARK    3  A    between atoms: C8_8  and  N10_10 
REMARK    4  A    between atoms: C9_9  and  N10_10 
ROOT
HETATM    1  N10 UNL     1     -32.955   7.048   2.214  1.00 20.00     0.103 N 
ENDROOT
BRANCH   1   2
HETATM    2  C7  UNL     1     -31.828   7.957   1.953  1.00 20.00     0.269 C 
HETATM    3  C3  UNL     1     -31.902   8.523   0.575  1.00 20.00     0.037 C 
ENDBRANCH   1   2
BRANCH   1   4
HETATM    4  C8  UNL     1     -32.888   6.499   3.542  1.00 20.00     0.287 C 
HETATM    5  C4  UNL     1     -32.406   7.523   4.553  1.00 20.00     0.051 C 
BRANCH   4   6
HETATM    6  C1  UNL     1     -34.281   6.006   3.899  1.00 20.00     0.155 C 
HETATM    7  C2  UNL     1     -34.358   4.770   4.758  1.00 20.00     0.093 C 
HETATM    8  O11 UNL     1     -35.302   6.599   3.550  1.00 20.00    -0.296 OA
ENDBRANCH   4   6
ENDBRANCH   1   4
BRANCH   1   9
HETATM    9  C9  UNL     1     -32.975   5.986   1.196  1.00 20.00     0.216 C 
HETATM   10  C5  UNL     1     -34.143   5.051   1.474  1.00 20.00     0.042 C 
HETATM   11  C6  UNL     1     -31.644   5.249   1.227  1.00 20.00     0.042 C 
ENDBRANCH   1   9
TORSDOF 4
