REMARK  4 active torsions:
REMARK  status: ('A' for Active; 'I' for Inactive)
REMARK    1  A    between atoms: C1_1  and  C8_8 
REMARK    2  A    between atoms: C4_4  and  C7_7 
REMARK    3  A    between atoms: C7_7  and  O10_10 
REMARK    4  A    between atoms: C8_8  and  O10_10 
ROOT
HETATM    1  C6  UNL     1     -32.593   5.416   1.755  1.00 20.00     0.048 C 
HETATM    2  C8  UNL     1     -32.972   6.867   1.994  1.00 20.00     0.186 C 
ENDROOT
BRANCH   2   3
HETATM    3  C1  UNL     1     -33.619   7.057   3.359  1.00 20.00     0.151 C 
HETATM    4  C5  UNL     1     -34.920   6.338   3.609  1.00 20.00     0.093 C 
HETATM    5  O9  UNL     1     -33.116   7.769   4.228  1.00 20.00    -0.296 OA
ENDBRANCH   2   3
BRANCH   2   6
HETATM    6  O10 UNL     1     -31.791   7.649   1.926  1.00 20.00    -0.378 OA
BRANCH   6   7
HETATM    7  C7  UNL     1     -31.394   7.884   0.580  1.00 20.00     0.173 C 
BRANCH   7   8
HETATM    8  C4  UNL     1     -32.231   9.008   0.008  1.00 20.00     0.009 A 
HETATM    9  C2  UNL     1     -32.576  10.202   0.855  1.00 20.00     0.007 A 
HETATM   10  C3  UNL     1     -31.605  10.344  -0.284  1.00 20.00     0.007 A 
ENDBRANCH   7   8
ENDBRANCH   6   7
ENDBRANCH   2   6
TORSDOF 4
