REMARK  3 active torsions:
REMARK  status: ('A' for Active; 'I' for Inactive)
REMARK    1  A    between atoms: C5_5  and  C6_6 
REMARK    2  A    between atoms: C6_6  and  C7_7 
REMARK    3  A    between atoms: C7_7  and  N9_9 
ROOT
HETATM    1  C1  UNL     1     -34.072   7.024   3.838  1.00 20.00     0.095 C 
HETATM    2  C7  UNL     1     -33.688   5.993   2.859  1.00 20.00     0.327 C 
HETATM    3  N8  UNL     1     -34.380   7.836   4.607  1.00 20.00    -0.195 NA
ENDROOT
BRANCH   2   4
HETATM    4  C6  UNL     1     -32.923   4.836   3.526  1.00 20.00     0.050 C 
BRANCH   4   5
HETATM    5  C5  UNL     1     -33.801   3.833   4.287  1.00 20.00    -0.001 C 
HETATM    6  C2  UNL     1     -32.958   2.757   4.955  1.00 20.00     0.005 C 
ENDBRANCH   4   5
ENDBRANCH   2   4
BRANCH   2   7
HETATM    7  N9  UNL     1     -32.906   6.586   1.776  1.00 20.00     0.098 N 
HETATM    8  C3  UNL     1     -32.924   5.718   0.598  1.00 20.00     0.311 C 
HETATM    9  C4  UNL     1     -31.531   6.829   2.210  1.00 20.00     0.311 C 
ENDBRANCH   2   7
TORSDOF 3
