REMARK  3 active torsions:
REMARK  status: ('A' for Active; 'I' for Inactive)
REMARK    1  A    between atoms: C5_5  and  C6_6 
REMARK    2  A    between atoms: C6_6  and  C7_7 
REMARK    3  A    between atoms: C7_7  and  N9_9 
ROOT
HETATM    1  C1  UNL     1     -32.038   6.198   1.448  1.00 20.00     0.095 C 
HETATM    2  C7  UNL     1     -32.630   7.537   1.604  1.00 20.00     0.327 C 
HETATM    3  N8  UNL     1     -31.576   5.140   1.324  1.00 20.00    -0.195 NA
ENDROOT
BRANCH   2   4
HETATM    4  C6  UNL     1     -32.860   7.883   3.086  1.00 20.00     0.050 C 
BRANCH   4   5
HETATM    5  C5  UNL     1     -34.148   7.309   3.691  1.00 20.00    -0.001 C 
HETATM    6  C2  UNL     1     -34.139   5.787   3.665  1.00 20.00     0.005 C 
ENDBRANCH   4   5
ENDBRANCH   2   4
BRANCH   2   7
HETATM    7  N9  UNL     1     -31.796   8.541   0.947  1.00 20.00     0.098 N 
HETATM    8  C3  UNL     1     -30.658   8.896   1.795  1.00 20.00     0.311 C 
HETATM    9  C4  UNL     1     -32.584   9.731   0.626  1.00 20.00     0.311 C 
ENDBRANCH   2   7
TORSDOF 3
