REMARK  3 active torsions:
REMARK  status: ('A' for Active; 'I' for Inactive)
REMARK    1  A    between atoms: C1_1  and  C4_4 
REMARK    2  A    between atoms: C1_1  and  C7_7 
REMARK    3  A    between atoms: C7_7  and  C8_8 
ROOT
HETATM    1  C1  UNL     1     -32.606   7.061   2.202  1.00 20.00     0.131 C 
HETATM    2  O9  UNL     1     -32.308   6.128   1.459  1.00 20.00    -0.298 OA
ENDROOT
BRANCH   1   3
HETATM    3  C4  UNL     1     -33.341   6.817   3.495  1.00 20.00     0.055 A 
HETATM    4  C2  UNL     1     -34.825   6.902   3.482  1.00 20.00     0.013 A 
HETATM    5  C3  UNL     1     -34.144   5.573   3.616  1.00 20.00     0.013 A 
ENDBRANCH   1   3
BRANCH   1   6
HETATM    6  C7  UNL     1     -32.306   8.514   1.868  1.00 20.00     0.082 C 
BRANCH   6   7
HETATM    7  C8  UNL     1     -32.905   8.980   0.532  1.00 20.00    -0.016 C 
HETATM    8  C5  UNL     1     -32.369   8.154  -0.640  1.00 20.00     0.010 C 
HETATM    9  C6  UNL     1     -32.590  10.460   0.306  1.00 20.00     0.010 C 
ENDBRANCH   6   7
ENDBRANCH   1   6
TORSDOF 3
