REMARK  1 active torsions:
REMARK  status: ('A' for Active; 'I' for Inactive)
REMARK    1  A    between atoms: C2_2  and  C3_3 
ROOT
HETATM    1  C1  UNL     1     -32.832   7.237   2.064  1.00 20.00     0.064 C 
HETATM    2  C2  UNL     1     -33.719   6.201   2.611  1.00 20.00     0.194 C 
HETATM    3  N4  UNL     1     -32.132   8.054   1.631  1.00 20.00    -0.197 NA
ENDROOT
BRANCH   2   4
HETATM    4  C3  UNL     1     -34.671   6.773   3.644  1.00 20.00     0.366 C 
HETATM    5  F5  UNL     1     -33.978   7.299   4.683  1.00 20.00    -0.213 F 
HETATM    6  F6  UNL     1     -35.464   5.795   4.147  1.00 20.00    -0.213 F 
ENDBRANCH   2   4
TORSDOF 1
