REMARK  5 active torsions:
REMARK  status: ('A' for Active; 'I' for Inactive)
REMARK    1  A    between atoms: C4_4  and  C6_6 
REMARK    2  A    between atoms: C4_4  and  C7_7 
REMARK    3  A    between atoms: C5_5  and  C8_8 
REMARK    4  A    between atoms: C5_5  and  N9_9 
REMARK    5  A    between atoms: C7_7  and  N9_9 
ROOT
HETATM    1  C3  UNL     1     -32.219   5.614   0.871  1.00 20.00     0.042 C 
HETATM    2  C7  UNL     1     -32.642   6.692   1.867  1.00 20.00     0.217 C 
ENDROOT
BRANCH   2   3
HETATM    3  C4  UNL     1     -33.854   6.227   2.689  1.00 20.00     0.039 C 
BRANCH   3   4
HETATM    4  C6  UNL     1     -34.396   7.263   3.697  1.00 20.00    -0.021 C 
HETATM    5  C1  UNL     1     -33.300   7.624   4.704  1.00 20.00     0.009 C 
HETATM    6  C2  UNL     1     -35.633   6.761   4.442  1.00 20.00     0.009 C 
ENDBRANCH   3   4
ENDBRANCH   2   3
BRANCH   2   7
HETATM    7  N9  UNL     1     -32.970   7.898   1.137  1.00 20.00     0.092 N 
HETATM    8  H28 UNL     1     -33.477   7.657   0.282  1.00 20.00     0.316 HD
BRANCH   7   9
HETATM    9  C5  UNL     1     -31.768   8.643   0.776  1.00 20.00     0.340 C 
BRANCH   9  10
HETATM   10  C8  UNL     1     -32.129   9.908   0.027  1.00 20.00     0.381 C 
HETATM   11  F10 UNL     1     -32.956  10.673   0.783  1.00 20.00    -0.213 F 
HETATM   12  F11 UNL     1     -32.825   9.579  -1.091  1.00 20.00    -0.213 F 
ENDBRANCH   9  10
ENDBRANCH   7   9
ENDBRANCH   2   7
TORSDOF 5
