REMARK  1 active torsions:
REMARK  status: ('A' for Active; 'I' for Inactive)
REMARK    1  A    between atoms: C3_3  and  C6_6 
ROOT
HETATM    1  C1  UNL     1     -32.539   6.698   1.444  1.00 20.00     0.019 A 
HETATM    2  C2  UNL     1     -33.311   5.715   2.126  1.00 20.00     0.028 A 
HETATM    3  C3  UNL     1     -32.667   7.945   2.015  1.00 20.00     0.015 A 
HETATM    4  C4  UNL     1     -34.000   6.247   3.194  1.00 20.00     0.051 A 
HETATM    5  S8  UNL     1     -33.715   7.926   3.370  1.00 20.00    -0.085 SA
HETATM    6 BR9  UNL     1     -35.132   5.249   4.347  1.00 20.00    -0.043 Br
ENDROOT
BRANCH   3   7
HETATM    7  C6  UNL     1     -31.958   9.204   1.507  1.00 20.00     0.185 A 
HETATM    8  C5  UNL     1     -32.714  10.139   0.586  1.00 20.00     0.206 A 
HETATM    9  O7  UNL     1     -31.591   9.385   0.122  1.00 20.00    -0.376 OA
ENDBRANCH   3   7
TORSDOF 1
