REMARK  2 active torsions:
REMARK  status: ('A' for Active; 'I' for Inactive)
REMARK    1  A    between atoms: C7_7  and  C10_10 
REMARK    2  A    between atoms: C8_8  and  C9_9 
ROOT
HETATM    1  C1  UNL     1     -32.145   7.887   3.000  1.00 20.00    -0.019 A 
HETATM    2  C3  UNL     1     -33.273   7.169   3.083  1.00 20.00    -0.087 A 
HETATM    3  C5  UNL     1     -33.462   6.240   1.920  1.00 20.00     0.039 A 
HETATM    4  C8  UNL     1     -31.366   7.571   1.768  1.00 20.00     0.021 A 
HETATM    5  C10 UNL     1     -32.239   6.500   1.034  1.00 20.00     0.005 A 
HETATM    6  C11 UNL     1     -34.280   7.232   4.174  1.00 20.00     0.043 C 
ENDROOT
BRANCH   4   7
HETATM    7  C9  UNL     1     -31.216   8.685   0.697  1.00 20.00     0.022 C 
HETATM    8  C4  UNL     1     -32.560   9.325   0.407  1.00 20.00    -0.082 C 
HETATM    9  C2  UNL     1     -33.314   8.407  -0.218  1.00 20.00    -0.019 C 
HETATM   10  C12 UNL     1     -32.908  10.705   0.812  1.00 20.00     0.043 C 
HETATM   11  C7  UNL     1     -32.478   7.156  -0.352  1.00 20.00     0.014 C 
HETATM   12  C6  UNL     1     -31.112   7.826  -0.574  1.00 20.00     0.018 C 
ENDBRANCH   4   7
TORSDOF 2
