REMARK  3 active torsions:
REMARK  status: ('A' for Active; 'I' for Inactive)
REMARK    1  A    between atoms: C2_2  and  C8_8 
REMARK    2  A    between atoms: C6_6  and  C7_7 
REMARK    3  A    between atoms: C6_6  and  C8_8 
ROOT
HETATM    1  C1  UNL     1     -32.450   6.009   1.832  1.00 20.00     0.063 C 
HETATM    2  C4  UNL     1     -34.244   6.557   3.416  1.00 20.00     0.025 C 
HETATM    3  C7  UNL     1     -33.027   7.089   2.656  1.00 20.00     0.089 C 
HETATM    4  N9  UNL     1     -31.995   5.160   1.186  1.00 20.00    -0.197 NA
ENDROOT
BRANCH   3   5
HETATM    5  C6  UNL     1     -33.432   8.299   1.790  1.00 20.00     0.030 C 
BRANCH   5   6
HETATM    6  C8  UNL     1     -32.274   8.904   0.973  1.00 20.00     0.052 C 
HETATM    7  C5  UNL     1     -31.173   9.418   1.897  1.00 20.00     0.018 C 
BRANCH   6   8
HETATM    8  C2  UNL     1     -32.745  10.061   0.097  1.00 20.00     0.127 C 
HETATM    9  C3  UNL     1     -32.707  11.436   0.712  1.00 20.00     0.091 C 
HETATM   10  O10 UNL     1     -33.170   9.889  -1.046  1.00 20.00    -0.298 OA
ENDBRANCH   6   8
ENDBRANCH   5   6
ENDBRANCH   3   5
TORSDOF 3
