REMARK  2 active torsions:
REMARK  status: ('A' for Active; 'I' for Inactive)
REMARK    1  A    between atoms: C1_1  and  C4_4 
REMARK    2  A    between atoms: C4_4  and  N5_5 
ROOT
HETATM    1  C4  UNL     1     -34.048   6.466   2.093  1.00 20.00     0.367 C 
ENDROOT
BRANCH   1   2
HETATM    2  C1  UNL     1     -32.612   6.291   1.641  1.00 20.00     0.247 C 
HETATM    3  O6  UNL     1     -32.132   5.212   1.308  1.00 20.00    -0.278 OA
HETATM    4 CL7  UNL     1     -31.757   7.811   1.657  1.00 20.00    -0.042 Cl
ENDBRANCH   1   2
BRANCH   1   5
HETATM    5  N5  UNL     1     -34.118   6.299   3.544  1.00 20.00     0.088 N 
HETATM    6  C2  UNL     1     -35.487   5.990   3.957  1.00 20.00     0.310 C 
HETATM    7  C3  UNL     1     -33.640   7.503   4.222  1.00 20.00     0.310 C 
ENDBRANCH   1   5
TORSDOF 2
