REMARK  3 active torsions:
REMARK  status: ('A' for Active; 'I' for Inactive)
REMARK    1  A    between atoms: C1_1  and  C4_4 
REMARK    2  A    between atoms: C2_2  and  C9_9 
REMARK    3  A    between atoms: C9_9  and  O10_10 
ROOT
HETATM    1  C3  UNL     1     -33.118   5.346   3.358  1.00 20.00    -0.011 C 
HETATM    2  C4  UNL     1     -33.564   6.583   3.116  1.00 20.00    -0.008 C 
HETATM    3  C5  UNL     1     -34.134   4.524   4.078  1.00 20.00     0.028 C 
HETATM    4  C6  UNL     1     -34.951   6.784   3.635  1.00 20.00     0.048 C 
HETATM    5  C7  UNL     1     -35.148   5.569   4.543  1.00 20.00     0.009 C 
ENDROOT
BRANCH   2   6
HETATM    6  C1  UNL     1     -32.817   7.572   2.434  1.00 20.00    -0.069 C 
HETATM    7  C2  UNL     1     -32.183   8.411   1.855  1.00 20.00    -0.075 C 
BRANCH   7   8
HETATM    8  C9  UNL     1     -31.410   9.434   1.151  1.00 20.00     0.261 C 
BRANCH   8   9
HETATM    9  O10 UNL     1     -31.852   9.527  -0.195  1.00 20.00    -0.384 OA
HETATM   10  C8  UNL     1     -33.043  10.297  -0.302  1.00 20.00     0.202 C 
ENDBRANCH   8   9
ENDBRANCH   7   8
ENDBRANCH   2   6
TORSDOF 3
