REMARK  1 active torsions:
REMARK  status: ('A' for Active; 'I' for Inactive)
REMARK    1  A    between atoms: C2_2  and  C3_3 
ROOT
HETATM    1  C1  UNL     1     -32.585   7.306   1.671  1.00 20.00    -0.077 C 
HETATM    2  C2  UNL     1     -32.406   8.091   0.599  1.00 20.00     0.044 C 
HETATM    3  C4  UNL     1     -32.788   5.817   1.558  1.00 20.00     0.034 C 
HETATM    4  C5  UNL     1     -32.620   7.850   3.075  1.00 20.00     0.034 C 
HETATM    5  C6  UNL     1     -34.062   5.387   2.286  1.00 20.00     0.004 C 
HETATM    6  C7  UNL     1     -33.896   7.410   3.795  1.00 20.00     0.004 C 
HETATM    7  C8  UNL     1     -34.093   5.895   3.728  1.00 20.00     0.001 C 
ENDROOT
BRANCH   2   8
HETATM    8  C3  UNL     1     -32.217   9.533   0.834  1.00 20.00     0.259 C 
HETATM    9  O9  UNL     1     -32.980  10.373   0.372  1.00 20.00    -0.302 OA
ENDBRANCH   2   8
TORSDOF 1
