REMARK  1 active torsions:
REMARK  status: ('A' for Active; 'I' for Inactive)
REMARK    1  A    between atoms: C7_7  and  C8_8 
ROOT
HETATM    1  C1  UNL     1     -32.371   8.810   0.881  1.00 20.00     0.066 C 
HETATM    2  C4  UNL     1     -30.949   7.105   1.955  1.00 20.00     0.048 C 
HETATM    3  C5  UNL     1     -31.443   5.893   1.194  1.00 20.00     0.169 C 
HETATM    4  C6  UNL     1     -32.194   7.961   2.074  1.00 20.00     0.124 C 
HETATM    5  C8  UNL     1     -33.308   6.915   2.174  1.00 20.00     0.143 C 
HETATM    6  N9  UNL     1     -32.510   9.478  -0.057  1.00 20.00    -0.197 NA
HETATM    7  O10 UNL     1     -32.813   5.706   1.567  1.00 20.00    -0.384 OA
ENDROOT
BRANCH   5   8
HETATM    8  C7  UNL     1     -33.688   6.614   3.596  1.00 20.00     0.016 A 
HETATM    9  C2  UNL     1     -34.685   7.481   4.314  1.00 20.00     0.007 A 
HETATM   10  C3  UNL     1     -35.056   6.079   3.917  1.00 20.00     0.007 A 
ENDBRANCH   5   8
TORSDOF 1
