REMARK  0 active torsions:
REMARK  status: ('A' for Active; 'I' for Inactive)
ROOT
HETATM    1  C1  UNL     1     -32.820   7.988   2.614  1.00 20.00     0.092 C 
HETATM    2  C2  UNL     1     -32.715   5.438   1.528  1.00 20.00     0.023 C 
HETATM    3  C3  UNL     1     -33.341   5.539   2.909  1.00 20.00     0.016 C 
HETATM    4  C4  UNL     1     -31.516   6.368   1.457  1.00 20.00     0.148 C 
HETATM    5  C5  UNL     1     -33.794   6.977   3.194  1.00 20.00    -0.014 C 
HETATM    6  C6  UNL     1     -33.888   7.205   4.707  1.00 20.00     0.020 C 
HETATM    7  C7  UNL     1     -35.164   7.255   2.557  1.00 20.00     0.020 C 
HETATM    8  N8  UNL     1     -31.829   7.745   1.831  1.00 20.00    -0.305 NA
ENDROOT
TORSDOF 0
