REMARK  1 active torsions:
REMARK  status: ('A' for Active; 'I' for Inactive)
REMARK    1  A    between atoms: C2_2  and  C7_7 
ROOT
HETATM    1  C1  UNL     1     -33.471   7.061   3.636  1.00 20.00     0.141 C 
HETATM    2  C3  UNL     1     -32.120   7.242   2.975  1.00 20.00     0.079 C 
HETATM    3  C4  UNL     1     -32.206   6.942   1.488  1.00 20.00     0.007 C 
HETATM    4  C5  UNL     1     -32.808   5.565   1.228  1.00 20.00     0.002 C 
HETATM    5  C6  UNL     1     -34.195   5.443   1.864  1.00 20.00     0.024 C 
HETATM    6  C7  UNL     1     -34.189   5.733   3.377  1.00 20.00     0.070 C 
HETATM    7  C8  UNL     1     -35.634   5.795   3.888  1.00 20.00     0.031 C 
HETATM    8  O9  UNL     1     -33.909   7.912   4.410  1.00 20.00    -0.297 OA
ENDROOT
BRANCH   6   9
HETATM    9  C2  UNL     1     -33.521   4.601   4.114  1.00 20.00     0.248 C 
HETATM   10  O10 UNL     1     -33.912   3.439   4.065  1.00 20.00    -0.306 OA
ENDBRANCH   6   9
TORSDOF 1
