REMARK  2 active torsions:
REMARK  status: ('A' for Active; 'I' for Inactive)
REMARK    1  A    between atoms: C2_2  and  C3_3 
REMARK    2  A    between atoms: C3_3  and  O11_11 
ROOT
HETATM    1  C1  UNL     1     -32.371   7.845   1.643  1.00 20.00    -0.074 C 
HETATM    2  C2  UNL     1     -32.668   6.539   1.703  1.00 20.00     0.085 C 
HETATM    3  C4  UNL     1     -31.492   8.425   0.565  1.00 20.00     0.034 C 
HETATM    4  C5  UNL     1     -32.910   8.843   2.634  1.00 20.00     0.034 C 
HETATM    5  C6  UNL     1     -32.197   9.583  -0.143  1.00 20.00     0.004 C 
HETATM    6  C7  UNL     1     -33.607   9.999   1.915  1.00 20.00     0.004 C 
HETATM    7  C8  UNL     1     -32.711  10.629   0.848  1.00 20.00     0.001 C 
ENDROOT
BRANCH   2   8
HETATM    8  C3  UNL     1     -33.534   6.031   2.783  1.00 20.00     0.282 C 
HETATM    9  O10 UNL     1     -34.421   6.661   3.337  1.00 20.00    -0.260 OA
BRANCH   8  10
HETATM   10  O11 UNL     1     -33.160   4.748   3.037  1.00 20.00    -0.323 OA
HETATM   11  C9  UNL     1     -33.900   4.084   4.067  1.00 20.00     0.213 C 
ENDBRANCH   8  10
ENDBRANCH   2   8
TORSDOF 2
