REMARK  0 active torsions:
REMARK  status: ('A' for Active; 'I' for Inactive)
ROOT
HETATM    1  C1  UNL     1     -32.627  10.660   0.226  1.00 20.00     0.015 C 
HETATM    2  C2  UNL     1     -32.596   9.461   0.274  1.00 20.00    -0.082 C 
HETATM    3  C3  UNL     1     -34.077   6.422   3.853  1.00 20.00     0.000 C 
HETATM    4  C4  UNL     1     -33.631   7.881   3.727  1.00 20.00     0.003 C 
HETATM    5  C5  UNL     1     -34.153   5.734   2.487  1.00 20.00     0.003 C 
HETATM    6  C6  UNL     1     -32.306   7.996   2.972  1.00 20.00     0.042 C 
HETATM    7  C7  UNL     1     -32.831   5.849   1.729  1.00 20.00     0.042 C 
HETATM    8  C8  UNL     1     -32.558   8.034   0.331  1.00 20.00     0.235 A 
HETATM    9  C9  UNL     1     -32.411   7.291   1.647  1.00 20.00     0.099 A 
HETATM   10  O10 UNL     1     -31.294   7.521   0.779  1.00 20.00    -0.356 OA
ENDROOT
TORSDOF 0
