REMARK  1 active torsions:
REMARK  status: ('A' for Active; 'I' for Inactive)
REMARK    1  A    between atoms: C3_3  and  C6_6 
ROOT
HETATM    1  C1  UNL     1     -34.311   3.899   4.162  1.00 20.00    -0.154 C 
HETATM    2  C5  UNL     1     -33.672   2.770   4.216  1.00 20.00     0.096 C 
HETATM    3  C6  UNL     1     -34.955   5.024   4.111  1.00 20.00     0.058 C 
ENDROOT
BRANCH   3   4
HETATM    4  C3  UNL     1     -34.321   6.247   3.710  1.00 20.00    -0.041 A 
HETATM    5  C2  UNL     1     -33.429   6.393   2.723  1.00 20.00    -0.009 A 
HETATM    6  C4  UNL     1     -33.085   7.829   2.713  1.00 20.00     0.156 A 
HETATM    7  C9  UNL     1     -32.823   5.432   1.770  1.00 20.00     0.052 C 
HETATM    8  C8  UNL     1     -33.827   8.591   3.770  1.00 20.00     0.088 A 
HETATM    9  O10 UNL     1     -32.289   8.330   1.931  1.00 20.00    -0.293 OA
HETATM   10  C7  UNL     1     -34.664   7.511   4.443  1.00 20.00     0.047 A 
ENDBRANCH   3   4
TORSDOF 1
