REMARK  1 active torsions:
REMARK  status: ('A' for Active; 'I' for Inactive)
REMARK    1  A    between atoms: C1_1  and  C6_6 
ROOT
HETATM    1  C1  UNL     1     -33.482   6.760   2.887  1.00 20.00     0.149 C 
HETATM    2  C2  UNL     1     -31.732   6.404   1.621  1.00 20.00     0.209 C 
HETATM    3  C3  UNL     1     -31.835   7.876   2.005  1.00 20.00     0.070 C 
HETATM    4  C4  UNL     1     -30.540   8.403   2.615  1.00 20.00     0.042 C 
HETATM    5  C5  UNL     1     -32.264   8.746   0.820  1.00 20.00     0.042 C 
HETATM    6  N7  UNL     1     -32.908   7.913   3.018  1.00 20.00    -0.257 NA
HETATM    7  O8  UNL     1     -32.981   5.853   2.019  1.00 20.00    -0.335 OA
ENDROOT
BRANCH   1   8
HETATM    8  C6  UNL     1     -34.685   6.313   3.633  1.00 20.00     0.200 C 
HETATM    9 CL9  UNL     1     -34.594   4.554   3.775  1.00 20.00    -0.122 Cl
ENDBRANCH   1   8
TORSDOF 1
