REMARK  2 active torsions:
REMARK  status: ('A' for Active; 'I' for Inactive)
REMARK    1  A    between atoms: C6_6  and  C7_7 
REMARK    2  A    between atoms: C7_7  and  N8_8 
ROOT
HETATM    1  C7  UNL     1     -33.299   6.738   2.533  1.00 20.00     0.443 C 
HETATM    2  F9  UNL     1     -33.973   7.470   1.594  1.00 20.00    -0.172 F 
HETATM    3  F10 UNL     1     -32.257   7.532   2.915  1.00 20.00    -0.172 F 
ENDROOT
BRANCH   1   4
HETATM    4  C6  UNL     1     -34.257   6.541   3.743  1.00 20.00     0.046 C 
HETATM    5  C1  UNL     1     -33.945   5.254   4.525  1.00 20.00     0.023 C 
HETATM    6  C2  UNL     1     -34.097   7.736   4.705  1.00 20.00     0.023 C 
HETATM    7  C3  UNL     1     -35.722   6.493   3.269  1.00 20.00     0.023 C 
ENDBRANCH   1   4
BRANCH   1   8
HETATM    8  N8  UNL     1     -32.805   5.481   1.943  1.00 20.00     0.152 N 
HETATM    9  C4  UNL     1     -33.786   4.865   1.048  1.00 20.00     0.317 C 
HETATM   10  C5  UNL     1     -31.539   5.656   1.228  1.00 20.00     0.317 C 
ENDBRANCH   1   8
TORSDOF 2
