REMARK  0 active torsions:
REMARK  status: ('A' for Active; 'I' for Inactive)
ROOT
HETATM    1  C1  UNL     1     -31.883   7.928   1.902  1.00 20.00     0.097 C 
HETATM    2  C2  UNL     1     -34.936   4.516   4.587  1.00 20.00     0.008 C 
HETATM    3  C3  UNL     1     -35.506   5.730   4.540  1.00 20.00     0.029 C 
HETATM    4  C4  UNL     1     -33.016   5.121   3.215  1.00 20.00    -0.004 C 
HETATM    5  C5  UNL     1     -33.608   8.535   3.513  1.00 20.00     0.136 C 
HETATM    6  C6  UNL     1     -32.995   7.643   2.726  1.00 20.00     0.053 C 
HETATM    7  C7  UNL     1     -33.602   4.245   4.055  1.00 20.00    -0.065 C 
HETATM    8  C8  UNL     1     -34.687   6.770   3.892  1.00 20.00     0.047 C 
HETATM    9  C9  UNL     1     -33.740   6.353   2.775  1.00 20.00     0.106 C 
HETATM   10  C10 UNL     1     -32.952   2.964   4.478  1.00 20.00     0.048 C 
HETATM   11  N11 UNL     1     -30.970   8.163   1.226  1.00 20.00    -0.192 NA
HETATM   12  N12 UNL     1     -34.660   8.024   4.226  1.00 20.00    -0.263 NA
ENDROOT
TORSDOF 0
