REMARK  1 active torsions:
REMARK  status: ('A' for Active; 'I' for Inactive)
REMARK    1  A    between atoms: C4_4  and  C6_6 
ROOT
HETATM    1  C1  UNL     1     -31.734   6.680   1.306  1.00 20.00     0.135 A 
HETATM    2  C2  UNL     1     -32.401   5.477   1.378  1.00 20.00     0.136 A 
HETATM    3  C3  UNL     1     -33.154   7.560   2.868  1.00 20.00     0.149 A 
HETATM    4  C4  UNL     1     -33.821   6.357   2.939  1.00 20.00     0.122 A 
HETATM    5  N7  UNL     1     -32.098   7.743   2.050  1.00 20.00    -0.269 NA
HETATM    6  N8  UNL     1     -33.456   5.294   2.195  1.00 20.00    -0.256 NA
ENDROOT
BRANCH   4   7
HETATM    7  C6  UNL     1     -34.984   6.191   3.854  1.00 20.00     0.285 C 
HETATM    8  C5  UNL     1     -35.121   4.753   4.352  1.00 20.00     0.097 C 
HETATM    9  F9  UNL     1     -36.181   6.527   3.271  1.00 20.00    -0.200 F 
HETATM   10  F10 UNL     1     -34.914   6.993   4.965  1.00 20.00    -0.200 F 
ENDBRANCH   4   7
TORSDOF 1
