REMARK  4 active torsions:
REMARK  status: ('A' for Active; 'I' for Inactive)
REMARK    1  A    between atoms: C7_7  and  C9_9 
REMARK    2  A    between atoms: C9_9  and  C11_11 
REMARK    3  A    between atoms: C10_10  and  C12_12 
REMARK    4  A    between atoms: C11_11  and  C12_12 
ROOT
HETATM    1  C1  UNL     1     -32.708   4.722   3.878  1.00 20.00     0.004 C 
HETATM    2  C2  UNL     1     -34.229   4.820   3.842  1.00 20.00     0.008 C 
HETATM    3  C3  UNL     1     -32.265   5.463   2.625  1.00 20.00     0.038 C 
HETATM    4  C4  UNL     1     -35.045   7.243   3.979  1.00 20.00     0.034 C 
HETATM    5  C5  UNL     1     -33.762   7.852   4.496  1.00 20.00     0.169 C 
HETATM    6  C6  UNL     1     -34.563   6.119   3.088  1.00 20.00     0.022 C 
HETATM    7  C7  UNL     1     -33.226   6.649   2.556  1.00 20.00     0.064 C 
HETATM    8  O13 UNL     1     -32.785   7.680   3.463  1.00 20.00    -0.380 OA
ENDROOT
BRANCH   7   9
HETATM    9  C9  UNL     1     -33.312   7.256   1.164  1.00 20.00     0.038 C 
BRANCH   9  10
HETATM   10  C11 UNL     1     -31.944   7.730   0.676  1.00 20.00     0.003 C 
BRANCH  10  11
HETATM   11  C12 UNL     1     -32.039   8.370  -0.710  1.00 20.00    -0.000 C 
BRANCH  11  12
HETATM   12  C10 UNL     1     -32.944   9.602  -0.692  1.00 20.00    -0.005 C 
HETATM   13  C8  UNL     1     -32.442  10.648   0.290  1.00 20.00     0.005 C 
ENDBRANCH  11  12
ENDBRANCH  10  11
ENDBRANCH   9  10
ENDBRANCH   7   9
TORSDOF 4
