REMARK  3 active torsions:
REMARK  status: ('A' for Active; 'I' for Inactive)
REMARK    1  A    between atoms: C3_3  and  C7_7 
REMARK    2  A    between atoms: C7_7  and  C8_8 
REMARK    3  A    between atoms: C8_8  and  C9_9 
ROOT
HETATM    1  C1  UNL     1     -34.530   6.545   3.639  1.00 20.00     0.088 C 
HETATM    2  C2  UNL     1     -33.340   7.187   3.198  1.00 20.00     0.096 C 
HETATM    3  C3  UNL     1     -32.780   6.988   1.991  1.00 20.00    -0.074 C 
HETATM    4  C4  UNL     1     -33.415   6.037   1.010  1.00 20.00     0.044 C 
HETATM    5  N10 UNL     1     -35.499   6.024   4.006  1.00 20.00    -0.192 NA
ENDROOT
BRANCH   3   6
HETATM    6  C7  UNL     1     -31.498   7.647   1.522  1.00 20.00     0.034 C 
BRANCH   6   7
HETATM    7  C8  UNL     1     -31.626   9.174   1.452  1.00 20.00     0.008 C 
BRANCH   7   8
HETATM    8  C9  UNL     1     -32.683   9.652   0.438  1.00 20.00    -0.023 C 
HETATM    9  C5  UNL     1     -32.315   9.161  -0.965  1.00 20.00     0.009 C 
HETATM   10  C6  UNL     1     -32.837  11.173   0.428  1.00 20.00     0.009 C 
ENDBRANCH   7   8
ENDBRANCH   6   7
ENDBRANCH   3   6
TORSDOF 3
