REMARK  0 active torsions:
REMARK  status: ('A' for Active; 'I' for Inactive)
ROOT
HETATM    1  C1  UNL     1     -34.553   7.598   4.481  1.00 20.00     0.002 C 
HETATM    2  C2  UNL     1     -34.866   6.601   3.637  1.00 20.00     0.030 C 
HETATM    3  C3  UNL     1     -33.267   8.276   4.449  1.00 20.00    -0.001 C 
HETATM    4  C4  UNL     1     -32.444   8.159   3.392  1.00 20.00     0.006 C 
HETATM    5  C5  UNL     1     -32.319   5.354   1.524  1.00 20.00     0.228 C 
HETATM    6  C6  UNL     1     -33.810   6.278   2.667  1.00 20.00     0.064 C 
HETATM    7  C7  UNL     1     -32.867   7.358   2.207  1.00 20.00     0.184 C 
HETATM    8  N8  UNL     1     -31.814   6.552   1.567  1.00 20.00    -0.268 NA
HETATM    9  N9  UNL     1     -33.520   5.134   2.155  1.00 20.00    -0.244 NA
ENDROOT
TORSDOF 0
