REMARK  2 active torsions:
REMARK  status: ('A' for Active; 'I' for Inactive)
REMARK    1  A    between atoms: C1_1  and  C5_5 
REMARK    2  A    between atoms: C1_1  and  C6_6 
ROOT
HETATM    1  C2  UNL     1     -35.337   5.336   4.399  1.00 20.00     0.029 C 
HETATM    2  C3  UNL     1     -34.017   5.213   3.680  1.00 20.00     0.042 C 
HETATM    3  C4  UNL     1     -36.025   6.421   3.602  1.00 20.00     0.168 C 
HETATM    4  C5  UNL     1     -33.734   6.647   3.274  1.00 20.00     0.192 C 
HETATM    5  O8  UNL     1     -34.993   7.322   3.181  1.00 20.00    -0.378 OA
ENDROOT
BRANCH   4   6
HETATM    6  C1  UNL     1     -33.103   6.753   1.926  1.00 20.00     0.169 C 
HETATM    7  O7  UNL     1     -33.265   5.868   1.087  1.00 20.00    -0.294 OA
BRANCH   6   8
HETATM    8  C6  UNL     1     -32.273   7.993   1.685  1.00 20.00     0.195 C 
HETATM    9 CL9  UNL     1     -32.913   8.917   0.318  1.00 20.00    -0.122 Cl
ENDBRANCH   6   8
ENDBRANCH   4   6
TORSDOF 2
