REMARK  1 active torsions:
REMARK  status: ('A' for Active; 'I' for Inactive)
REMARK    1  A    between atoms: C6_6  and  N12_12 
ROOT
HETATM    1  C1  UNL     1     -32.737   5.458   1.549  1.00 20.00     0.026 A 
HETATM    2  C2  UNL     1     -32.107   6.427   0.794  1.00 20.00     0.097 A 
HETATM    3  C3  UNL     1     -33.370   6.116   2.632  1.00 20.00    -0.034 A 
HETATM    4  C4  UNL     1     -33.099   7.463   2.503  1.00 20.00     0.022 A 
HETATM    5  C7  UNL     1     -34.173   5.565   3.758  1.00 20.00     0.040 C 
HETATM    6  C8  UNL     1     -33.578   8.547   3.400  1.00 20.00     0.058 C 
HETATM    7  C9  UNL     1     -34.961   6.680   4.474  1.00 20.00     0.005 C 
HETATM    8  C10 UNL     1     -34.103   7.938   4.714  1.00 20.00     0.006 C 
HETATM    9  N12 UNL     1     -32.335   7.645   1.385  1.00 20.00    -0.330 N 
ENDROOT
BRANCH   9  10
HETATM   10  C6  UNL     1     -31.862   8.852   0.900  1.00 20.00     0.003 C 
HETATM   11  C5  UNL     1     -32.485  10.036   1.065  1.00 20.00     0.038 C 
HETATM   12  C11 UNL     1     -30.559   8.870   0.128  1.00 20.00     0.068 C 
ENDBRANCH   9  10
TORSDOF 1
