REMARK  1 active torsions:
REMARK  status: ('A' for Active; 'I' for Inactive)
REMARK    1  A    between atoms: C7_7  and  N8_8 
ROOT
HETATM    1  C1  UNL     1     -32.528   9.840  -0.865  1.00 20.00     0.013 C 
HETATM    2  C2  UNL     1     -32.540   9.522   0.293  1.00 20.00    -0.087 C 
HETATM    3  C7  UNL     1     -32.552   9.139   1.707  1.00 20.00     0.364 C 
ENDROOT
BRANCH   3   4
HETATM    4  N8  UNL     1     -32.974   7.734   1.862  1.00 20.00     0.100 N 
HETATM    5  C3  UNL     1     -31.828   6.859   1.575  1.00 20.00     0.283 C 
HETATM    6  C5  UNL     1     -32.209   5.380   1.583  1.00 20.00     0.104 C 
HETATM    7  S9  UNL     1     -32.810   4.853   3.211  1.00 20.00    -0.166 SA
HETATM    8  C6  UNL     1     -34.064   6.143   3.439  1.00 20.00     0.104 C 
HETATM    9  C4  UNL     1     -33.481   7.539   3.228  1.00 20.00     0.283 C 
ENDBRANCH   3   4
TORSDOF 1
