REMARK  1 active torsions:
REMARK  status: ('A' for Active; 'I' for Inactive)
REMARK    1  A    between atoms: C3_3  and  C7_7 
ROOT
HETATM    1  C1  UNL     1     -31.504   6.279   1.775  1.00 20.00    -0.025 C 
HETATM    2  C2  UNL     1     -32.814   6.108   1.540  1.00 20.00    -0.024 C 
HETATM    3  C4  UNL     1     -31.906   8.079   3.369  1.00 20.00     0.021 C 
HETATM    4  C5  UNL     1     -31.282   7.764   1.982  1.00 20.00     0.017 C 
HETATM    5  C6  UNL     1     -33.462   7.483   1.605  1.00 20.00     0.027 C 
HETATM    6  C7  UNL     1     -33.434   7.921   3.097  1.00 20.00     0.056 C 
HETATM    7  C8  UNL     1     -32.323   8.340   0.984  1.00 20.00    -0.033 C 
HETATM    8  C9  UNL     1     -32.028   8.031  -0.504  1.00 20.00     0.016 C 
HETATM    9  C10 UNL     1     -32.526   9.865   1.070  1.00 20.00     0.016 C 
ENDROOT
BRANCH   6  10
HETATM   10  C3  UNL     1     -34.095   6.944   4.023  1.00 20.00     0.236 C 
HETATM   11  O11 UNL     1     -35.057   6.255   3.703  1.00 20.00    -0.306 OA
ENDBRANCH   6  10
TORSDOF 1
