REMARK  0 active torsions:
REMARK  status: ('A' for Active; 'I' for Inactive)
ROOT
HETATM    1  C1  UNL     1     -32.200   5.153   1.875  1.00 20.00     0.011 A 
HETATM    2  C2  UNL     1     -31.478   6.198   1.297  1.00 20.00     0.024 A 
HETATM    3  C3  UNL     1     -32.821   7.800   2.507  1.00 20.00     0.031 A 
HETATM    4  C4  UNL     1     -33.233   5.425   2.779  1.00 20.00    -0.028 A 
HETATM    5  C5  UNL     1     -33.557   6.759   3.083  1.00 20.00    -0.046 A 
HETATM    6  C6  UNL     1     -31.787   7.519   1.614  1.00 20.00     0.034 A 
HETATM    7  C7  UNL     1     -34.651   7.056   4.075  1.00 20.00     0.065 C 
HETATM    8  C8  UNL     1     -34.031   4.295   3.378  1.00 20.00     0.206 C 
HETATM    9  C9  UNL     1     -35.581   5.860   4.238  1.00 20.00     0.172 C 
HETATM   10  O10 UNL     1     -34.803   4.696   4.516  1.00 20.00    -0.386 OA
HETATM   11 CL11 UNL     1     -30.890   8.806   0.905  1.00 20.00    -0.084 Cl
ENDROOT
TORSDOF 0
