REMARK  0 active torsions:
REMARK  status: ('A' for Active; 'I' for Inactive)
ROOT
HETATM    1  C1  UNL     1     -34.076   6.362   3.037  1.00 20.00     0.131 C 
HETATM    2  C2  UNL     1     -31.730   6.361   1.686  1.00 20.00     0.059 C 
HETATM    3  C3  UNL     1     -32.844   5.470   1.174  1.00 20.00     0.179 C 
HETATM    4  C4  UNL     1     -32.303   7.689   2.189  1.00 20.00     0.051 C 
HETATM    5  C5  UNL     1     -35.208   6.060   3.966  1.00 20.00     0.099 C 
HETATM    6  C6  UNL     1     -31.211   8.466   2.936  1.00 20.00     0.040 C 
HETATM    7  C7  UNL     1     -32.846   8.561   1.048  1.00 20.00     0.040 C 
HETATM    8  N8  UNL     1     -33.393   7.447   3.140  1.00 20.00    -0.261 NA
HETATM    9  O9  UNL     1     -33.900   5.357   2.140  1.00 20.00    -0.338 OA
ENDROOT
TORSDOF 0
