REMARK  1 active torsions:
REMARK  status: ('A' for Active; 'I' for Inactive)
REMARK    1  A    between atoms: C4_4  and  C10_10 
ROOT
HETATM    1  C1  UNL     1     -33.516   7.246   4.063  1.00 20.00     0.092 C 
HETATM    2  C2  UNL     1     -32.618   6.642   1.502  1.00 20.00     0.029 C 
HETATM    3  C3  UNL     1     -34.091   6.374   1.768  1.00 20.00     0.016 C 
HETATM    4  C4  UNL     1     -32.159   7.915   2.209  1.00 20.00     0.110 C 
HETATM    5  C5  UNL     1     -34.361   6.264   3.273  1.00 20.00    -0.014 C 
HETATM    6  C6  UNL     1     -35.839   6.557   3.559  1.00 20.00     0.020 C 
HETATM    7  C7  UNL     1     -34.017   4.858   3.790  1.00 20.00     0.020 C 
HETATM    8  N11 UNL     1     -32.538   7.956   3.622  1.00 20.00    -0.299 NA
ENDROOT
BRANCH   4   9
HETATM    9  C10 UNL     1     -32.674   9.188   1.538  1.00 20.00     0.002 C 
HETATM   10  C8  UNL     1     -32.213  10.425   2.306  1.00 20.00     0.011 C 
HETATM   11  C9  UNL     1     -32.209   9.256   0.084  1.00 20.00     0.011 C 
ENDBRANCH   4   9
TORSDOF 1
