REMARK  0 active torsions:
REMARK  status: ('A' for Active; 'I' for Inactive)
ROOT
HETATM    1  C1  UNL     1     -32.706   5.809   1.919  1.00 20.00     0.036 C 
HETATM    2  C2  UNL     1     -33.594   7.566   3.812  1.00 20.00     0.297 C 
HETATM    3  C3  UNL     1     -32.636   7.292   1.563  1.00 20.00     0.263 C 
HETATM    4  C4  UNL     1     -34.455   6.403   3.312  1.00 20.00     0.132 C 
HETATM    5  C5  UNL     1     -31.779   4.821   1.262  1.00 20.00     0.067 C 
HETATM    6  C6  UNL     1     -31.414   7.695   0.745  1.00 20.00     0.049 C 
HETATM    7  C7  UNL     1     -35.266   5.792   4.450  1.00 20.00     0.036 C 
HETATM    8  N8  UNL     1     -33.586   5.358   2.755  1.00 20.00    -0.290 NA
HETATM    9  N9  UNL     1     -32.651   8.064   2.809  1.00 20.00     0.095 N 
HETATM   10  H23 UNL     1     -32.870   9.050   2.595  1.00 20.00     0.316 HD
ENDROOT
TORSDOF 0
