REMARK  1 active torsions:
REMARK  status: ('A' for Active; 'I' for Inactive)
REMARK    1  A    between atoms: C1_1  and  C6_6 
ROOT
HETATM    1  C2  UNL     1     -35.136   5.944   4.169  1.00 20.00     0.002 C 
HETATM    2  C3  UNL     1     -34.127   6.806   3.415  1.00 20.00     0.013 C 
HETATM    3  C4  UNL     1     -34.457   4.780   4.888  1.00 20.00     0.020 C 
HETATM    4  C5  UNL     1     -32.596   4.806   3.176  1.00 20.00     0.033 C 
HETATM    5  C6  UNL     1     -33.279   5.971   2.454  1.00 20.00     0.073 C 
HETATM    6  C7  UNL     1     -33.617   3.945   3.921  1.00 20.00     0.083 C 
HETATM    7 CL10 UNL     1     -32.779   2.643   4.811  1.00 20.00    -0.125 Cl
ENDROOT
BRANCH   5   8
HETATM    8  C1  UNL     1     -32.249   6.849   1.814  1.00 20.00     0.223 C 
HETATM    9  O8  UNL     1     -31.765   7.811   2.403  1.00 20.00    -0.279 OA
HETATM   10 CL9  UNL     1     -31.861   6.333   0.201  1.00 20.00    -0.043 Cl
ENDBRANCH   5   8
TORSDOF 1
