REMARK  3 active torsions:
REMARK  status: ('A' for Active; 'I' for Inactive)
REMARK    1  A    between atoms: C4_4  and  C5_5 
REMARK    2  A    between atoms: C6_6  and  C9_9 
REMARK    3  A    between atoms: C7_7  and  C10_10 
ROOT
HETATM    1  C1  UNL     1     -34.325   6.667   4.592  1.00 20.00    -0.029 C 
HETATM    2  C2  UNL     1     -33.907   7.760   3.950  1.00 20.00    -0.021 C 
HETATM    3  C8  UNL     1     -34.015   5.418   3.838  1.00 20.00     0.039 C 
HETATM    4  C9  UNL     1     -33.252   7.434   2.645  1.00 20.00     0.041 C 
HETATM    5  C10 UNL     1     -33.085   5.903   2.718  1.00 20.00     0.062 C 
ENDROOT
BRANCH   4   6
HETATM    6  C6  UNL     1     -31.941   8.130   2.466  1.00 20.00    -0.017 C 
HETATM    7  C5  UNL     1     -31.670   8.956   1.446  1.00 20.00    -0.004 C 
BRANCH   7   8
HETATM    8  C4  UNL     1     -32.623   9.263   0.404  1.00 20.00    -0.011 C 
HETATM    9  C3  UNL     1     -32.357  10.087  -0.616  1.00 20.00     0.011 C 
ENDBRANCH   7   8
ENDBRANCH   4   6
BRANCH   5  10
HETATM   10  C7  UNL     1     -33.448   5.268   1.410  1.00 20.00     0.236 C 
HETATM   11  O11 UNL     1     -32.678   4.564   0.765  1.00 20.00    -0.306 OA
ENDBRANCH   5  10
TORSDOF 3
