REMARK  1 active torsions:
REMARK  status: ('A' for Active; 'I' for Inactive)
REMARK    1  A    between atoms: C6_6  and  N10_10 
ROOT
HETATM    1  C1  UNL     1     -32.490   8.850   0.835  1.00 20.00     0.064 C 
HETATM    2  C2  UNL     1     -31.440   6.646   1.287  1.00 20.00     0.021 C 
HETATM    3  C3  UNL     1     -32.179   5.581   2.098  1.00 20.00     0.037 C 
HETATM    4  C4  UNL     1     -32.870   7.674   2.987  1.00 20.00     0.055 C 
HETATM    5  C5  UNL     1     -31.872   8.004   1.869  1.00 20.00     0.095 C 
HETATM    6  C6  UNL     1     -33.424   6.305   2.598  1.00 20.00     0.223 C 
HETATM    7  N9  UNL     1     -32.978   9.517   0.020  1.00 20.00    -0.197 NA
ENDROOT
BRANCH   6   8
HETATM    8  N10 UNL     1     -34.077   5.626   3.704  1.00 20.00     0.084 N 
HETATM    9  C7  UNL     1     -34.500   4.278   3.313  1.00 20.00     0.309 C 
HETATM   10  C8  UNL     1     -35.231   6.395   4.181  1.00 20.00     0.309 C 
ENDBRANCH   6   8
TORSDOF 1
