REMARK  1 active torsions:
REMARK  status: ('A' for Active; 'I' for Inactive)
REMARK    1  A    between atoms: C3_3  and  C4_4 
ROOT
HETATM    1  C1  UNL     1     -32.716   8.115   3.488  1.00 20.00     0.061 C 
HETATM    2  C2  UNL     1     -33.707   7.500   4.138  1.00 20.00     0.087 C 
HETATM    3  C4  UNL     1     -32.614   7.590   2.096  1.00 20.00     0.376 C 
HETATM    4  C5  UNL     1     -34.357   6.502   3.248  1.00 20.00     0.463 C 
HETATM    5  C6  UNL     1     -33.609   5.568   1.103  1.00 20.00     0.324 C 
HETATM    6  N7  UNL     1     -33.820   6.764   1.902  1.00 20.00     0.211 N 
HETATM    7  F9  UNL     1     -31.473   6.867   1.941  1.00 20.00    -0.195 F 
HETATM    8  F10 UNL     1     -34.087   5.237   3.667  1.00 20.00    -0.169 F 
HETATM    9  F11 UNL     1     -35.708   6.636   3.237  1.00 20.00    -0.169 F 
ENDROOT
BRANCH   3  10
HETATM   10  C3  UNL     1     -32.676   8.733   1.139  1.00 20.00     0.312 C 
HETATM   11  O8  UNL     1     -31.778   9.003   0.349  1.00 20.00    -0.301 OA
ENDBRANCH   3  10
TORSDOF 1
