REMARK  0 active torsions:
REMARK  status: ('A' for Active; 'I' for Inactive)
ROOT
HETATM    1  C1  UNL     1     -34.528   7.530   4.141  1.00 20.00     0.148 A 
HETATM    2  C2  UNL     1     -34.878   5.677   3.083  1.00 20.00     0.218 A 
HETATM    3  C3  UNL     1     -33.528   7.413   3.220  1.00 20.00     0.061 A 
HETATM    4  C4  UNL     1     -32.371   7.960   2.652  1.00 20.00     0.037 A 
HETATM    5  C5  UNL     1     -31.913   7.149   1.677  1.00 20.00     0.077 A 
HETATM    6  C6  UNL     1     -32.832   5.986   1.598  1.00 20.00     0.253 A 
HETATM    7  N7  UNL     1     -35.374   6.434   4.049  1.00 20.00    -0.253 NA
HETATM    8  N8  UNL     1     -33.763   6.249   2.568  1.00 20.00    -0.272 N 
HETATM    9  O9  UNL     1     -32.846   5.002   0.893  1.00 20.00    -0.268 OA
ENDROOT
TORSDOF 0
