REMARK  2 active torsions:
REMARK  status: ('A' for Active; 'I' for Inactive)
REMARK    1  A    between atoms: C3_3  and  C8_8 
REMARK    2  A    between atoms: C9_9  and  N11_11 
ROOT
HETATM    1  C1  UNL     1     -33.720   3.513   4.549  1.00 20.00     0.089 C 
HETATM    2  C9  UNL     1     -34.621   4.544   4.039  1.00 20.00     0.395 C 
HETATM    3  N10 UNL     1     -33.007   2.692   4.955  1.00 20.00    -0.195 NA
ENDROOT
BRANCH   2   4
HETATM    4  N11 UNL     1     -33.867   5.690   3.530  1.00 20.00     0.101 N 
HETATM    5  C6  UNL     1     -33.358   5.411   2.180  1.00 20.00     0.274 C 
HETATM    6  C4  UNL     1     -32.520   6.579   1.656  1.00 20.00     0.039 C 
HETATM    7  C8  UNL     1     -33.314   7.884   1.678  1.00 20.00     0.011 C 
HETATM    8  C5  UNL     1     -33.910   8.120   3.064  1.00 20.00     0.039 C 
HETATM    9  C7  UNL     1     -34.701   6.900   3.543  1.00 20.00     0.274 C 
BRANCH   7  10
HETATM   10  C3  UNL     1     -32.429   9.034   1.310  1.00 20.00    -0.032 C 
HETATM   11  C2  UNL     1     -32.635   9.829   0.254  1.00 20.00     0.007 C 
ENDBRANCH   7  10
ENDBRANCH   2   4
TORSDOF 2
