REMARK  1 active torsions:
REMARK  status: ('A' for Active; 'I' for Inactive)
REMARK    1  A    between atoms: C1_1  and  C3_3 
ROOT
HETATM    1  C2  UNL     1     -32.188   4.219   3.139  1.00 20.00     0.090 C 
HETATM    2  C3  UNL     1     -33.762   6.316   2.524  1.00 20.00     0.195 C 
HETATM    3  C4  UNL     1     -33.530   3.915   3.792  1.00 20.00     0.054 C 
HETATM    4  C5  UNL     1     -33.358   3.229   5.140  1.00 20.00     0.022 C 
HETATM    5  S7  UNL     1     -32.513   5.292   1.717  1.00 20.00    -0.143 SA
HETATM    6  S8  UNL     1     -34.411   5.498   4.002  1.00 20.00    -0.139 SA
ENDROOT
BRANCH   2   7
HETATM    7  C1  UNL     1     -33.128   7.599   2.938  1.00 20.00     0.242 C 
HETATM    8  O6  UNL     1     -33.091   7.951   4.113  1.00 20.00    -0.278 OA
HETATM    9 CL9  UNL     1     -32.483   8.476   1.584  1.00 20.00    -0.042 Cl
ENDBRANCH   2   7
TORSDOF 1
