REMARK  1 active torsions:
REMARK  status: ('A' for Active; 'I' for Inactive)
REMARK    1  A    between atoms: C1_1  and  C7_7 
ROOT
HETATM    1  C2  UNL     1     -32.740   5.734   1.904  1.00 20.00     0.004 C 
HETATM    2  C3  UNL     1     -33.763   6.097   2.972  1.00 20.00     0.037 C 
HETATM    3  C4  UNL     1     -32.601   6.841   0.857  1.00 20.00     0.016 C 
HETATM    4  C5  UNL     1     -33.323   8.550   2.579  1.00 20.00     0.053 C 
HETATM    5  C6  UNL     1     -33.450   7.440   3.616  1.00 20.00     0.171 C 
HETATM    6  C7  UNL     1     -32.308   8.225   1.469  1.00 20.00     0.012 C 
HETATM    7  C8  UNL     1     -30.866   8.314   1.986  1.00 20.00     0.023 C 
HETATM    8  F10 UNL     1     -34.464   7.758   4.467  1.00 20.00    -0.249 F 
ENDROOT
BRANCH   6   9
HETATM    9  C1  UNL     1     -32.444   9.262   0.382  1.00 20.00     0.240 C 
HETATM   10  O9  UNL     1     -33.246  10.189   0.429  1.00 20.00    -0.306 OA
ENDBRANCH   6   9
TORSDOF 1
