REMARK  2 active torsions:
REMARK  status: ('A' for Active; 'I' for Inactive)
REMARK    1  A    between atoms: C3_3  and  C5_5 
REMARK    2  A    between atoms: C4_4  and  C9_9 
ROOT
HETATM    1  C1  UNL     1     -33.296   8.045   2.914  1.00 20.00     0.005 C 
HETATM    2  C2  UNL     1     -32.419   8.472   2.014  1.00 20.00     0.132 C 
HETATM    3  C4  UNL     1     -32.911   6.673   3.333  1.00 20.00     0.050 C 
HETATM    4  C5  UNL     1     -31.794   6.363   2.321  1.00 20.00     0.204 C 
HETATM    5  O11 UNL     1     -31.420   7.591   1.663  1.00 20.00    -0.350 OA
ENDROOT
BRANCH   3   6
HETATM    6  C9  UNL     1     -34.075   5.693   3.363  1.00 20.00    -0.012 C 
HETATM    7  C7  UNL     1     -33.732   4.470   4.214  1.00 20.00     0.010 C 
HETATM    8  C8  UNL     1     -35.340   6.371   3.890  1.00 20.00     0.010 C 
ENDBRANCH   3   6
BRANCH   4   9
HETATM    9  C3  UNL     1     -32.170   5.425   1.213  1.00 20.00     0.152 C 
HETATM   10  C6  UNL     1     -32.832   6.035   0.007  1.00 20.00     0.093 C 
HETATM   11  O10 UNL     1     -31.947   4.218   1.285  1.00 20.00    -0.296 OA
ENDBRANCH   4   9
TORSDOF 2
