REMARK  3 active torsions:
REMARK  status: ('A' for Active; 'I' for Inactive)
REMARK    1  A    between atoms: C1_1  and  C7_7 
REMARK    2  A    between atoms: C2_2  and  C9_9 
REMARK    3  A    between atoms: C9_9  and  C10_10 
ROOT
HETATM    1  C3  UNL     1     -34.842   5.877   3.931  1.00 20.00     0.128 C 
HETATM    2  C4  UNL     1     -33.930   4.750   3.523  1.00 20.00     0.079 C 
HETATM    3  C5  UNL     1     -34.356   7.214   3.430  1.00 20.00     0.095 C 
HETATM    4  C6  UNL     1     -33.039   5.429   2.490  1.00 20.00     0.025 C 
HETATM    5  C7  UNL     1     -32.938   6.877   2.967  1.00 20.00     0.072 C 
HETATM    6  O11 UNL     1     -35.859   5.726   4.595  1.00 20.00    -0.298 OA
ENDROOT
BRANCH   5   7
HETATM    7  C1  UNL     1     -32.470   7.780   1.912  1.00 20.00    -0.101 C 
HETATM    8  C2  UNL     1     -32.088   8.521   1.048  1.00 20.00    -0.106 C 
BRANCH   8   9
HETATM    9  C9  UNL     1     -31.616   9.427  -0.008  1.00 20.00     0.093 C 
BRANCH   9  10
HETATM   10  C10 UNL     1     -32.757  10.224  -0.640  1.00 20.00     0.007 C 
HETATM   11  C8  UNL     1     -33.506  11.091   0.364  1.00 20.00     0.006 C 
ENDBRANCH   9  10
ENDBRANCH   8   9
ENDBRANCH   5   7
TORSDOF 3
