REMARK  2 active torsions:
REMARK  status: ('A' for Active; 'I' for Inactive)
REMARK    1  A    between atoms: C1_1  and  C4_4 
REMARK    2  A    between atoms: C1_1  and  C6_6 
ROOT
HETATM    1  C1  UNL     1     -32.908   7.055   2.138  1.00 20.00     0.145 C 
HETATM    2  O7  UNL     1     -32.589   5.969   1.668  1.00 20.00    -0.296 OA
ENDROOT
BRANCH   1   3
HETATM    3  C4  UNL     1     -32.324   8.307   1.572  1.00 20.00     0.057 A 
HETATM    4  C2  UNL     1     -32.453   8.555   0.107  1.00 20.00     0.013 A 
HETATM    5  C3  UNL     1     -33.253   9.366   1.081  1.00 20.00     0.013 A 
ENDBRANCH   1   3
BRANCH   1   6
HETATM    6  C6  UNL     1     -33.893   7.228   3.270  1.00 20.00     0.123 C 
HETATM    7  C5  UNL     1     -33.256   7.828   4.508  1.00 20.00     0.030 C 
HETATM    8 BR8  UNL     1     -34.547   5.438   3.672  1.00 20.00    -0.084 Br
ENDBRANCH   1   6
TORSDOF 2
