REMARK  1 active torsions:
REMARK  status: ('A' for Active; 'I' for Inactive)
REMARK    1  A    between atoms: C1_1  and  C9_9 
ROOT
HETATM    1  C2  UNL     1     -33.136   5.264   3.274  1.00 20.00     0.031 C 
HETATM    2  C3  UNL     1     -32.625   7.981   4.754  1.00 20.00     0.031 C 
HETATM    3  C4  UNL     1     -32.555   6.100   2.134  1.00 20.00     0.022 C 
HETATM    4  C5  UNL     1     -32.137   8.334   3.349  1.00 20.00     0.022 C 
HETATM    5  C6  UNL     1     -34.549   5.693   3.679  1.00 20.00     0.272 C 
HETATM    6  C7  UNL     1     -34.147   7.830   4.844  1.00 20.00     0.272 C 
HETATM    7  C8  UNL     1     -34.404   7.760   2.451  1.00 20.00     0.290 C 
HETATM    8  C9  UNL     1     -32.896   7.601   2.225  1.00 20.00     0.062 C 
HETATM    9  N10 UNL     1     -34.794   7.140   3.721  1.00 20.00     0.089 N 
ENDROOT
BRANCH   8  10
HETATM   10  C1  UNL     1     -32.520   8.253   0.920  1.00 20.00     0.229 C 
HETATM   11  O11 UNL     1     -32.029   7.611  -0.004  1.00 20.00    -0.279 OA
HETATM   12 CL12 UNL     1     -32.865   9.956   0.916  1.00 20.00    -0.043 Cl
ENDBRANCH   8  10
TORSDOF 1
