REMARK  2 active torsions:
REMARK  status: ('A' for Active; 'I' for Inactive)
REMARK    1  A    between atoms: C2_2  and  C5_5 
REMARK    2  A    between atoms: C4_4  and  C8_8 
ROOT
HETATM    1  C1  UNL     1     -33.481   5.698   2.578  1.00 20.00    -0.015 C 
HETATM    2  C2  UNL     1     -33.374   7.006   2.826  1.00 20.00    -0.009 C 
HETATM    3  C6  UNL     1     -32.560   5.287   1.477  1.00 20.00     0.028 C 
HETATM    4  C7  UNL     1     -31.622   6.493   1.350  1.00 20.00     0.017 C 
HETATM    5  C8  UNL     1     -32.374   7.692   1.952  1.00 20.00     0.044 C 
ENDROOT
BRANCH   2   6
HETATM    6  C5  UNL     1     -34.150   7.674   3.858  1.00 20.00     0.152 C 
HETATM    7  C9  UNL     1     -33.550   8.883   4.542  1.00 20.00     0.096 C 
HETATM    8  O10 UNL     1     -35.274   7.264   4.179  1.00 20.00    -0.293 OA
ENDBRANCH   2   6
BRANCH   5   9
HETATM    9  C4  UNL     1     -33.013   8.543   0.901  1.00 20.00    -0.027 C 
HETATM   10  C3  UNL     1     -32.758   9.845   0.736  1.00 20.00     0.007 C 
ENDBRANCH   5   9
TORSDOF 2
