REMARK  0 active torsions:
REMARK  status: ('A' for Active; 'I' for Inactive)
ROOT
HETATM    1  C1  UNL     1     -34.565   6.775   3.024  1.00 20.00     0.251 C 
HETATM    2  C2  UNL     1     -33.760   5.597   2.508  1.00 20.00     0.251 C 
HETATM    3  C3  UNL     1     -33.569   7.892   3.282  1.00 20.00     0.271 C 
HETATM    4  C4  UNL     1     -32.957   6.145   1.344  1.00 20.00     0.271 C 
HETATM    5  F5  UNL     1     -35.203   6.443   4.170  1.00 20.00    -0.242 F 
HETATM    6  F6  UNL     1     -32.905   5.184   3.485  1.00 20.00    -0.242 F 
HETATM    7  F7  UNL     1     -32.882   7.624   4.424  1.00 20.00    -0.235 F 
HETATM    8  F8  UNL     1     -31.904   5.336   1.077  1.00 20.00    -0.235 F 
HETATM    9  S9  UNL     1     -32.421   7.794   1.875  1.00 20.00    -0.089 SA
ENDROOT
TORSDOF 0
