REMARK  1 active torsions:
REMARK  status: ('A' for Active; 'I' for Inactive)
REMARK    1  A    between atoms: C2_2  and  C3_3 
ROOT
HETATM    1  C1  UNL     1     -33.222   6.104   1.384  1.00 20.00    -0.015 C 
HETATM    2  C2  UNL     1     -33.364   6.559   2.632  1.00 20.00    -0.012 C 
HETATM    3  C4  UNL     1     -32.277   6.963   0.609  1.00 20.00     0.032 C 
HETATM    4  C5  UNL     1     -32.556   7.791   2.906  1.00 20.00     0.022 C 
HETATM    5  C6  UNL     1     -31.558   7.744   1.722  1.00 20.00    -0.007 C 
HETATM    6  C8  UNL     1     -33.440   9.034   2.967  1.00 20.00     0.015 C 
HETATM    7  C9  UNL     1     -31.011   9.082   1.244  1.00 20.00     0.011 C 
ENDROOT
BRANCH   2   8
HETATM    8  C3  UNL     1     -34.216   5.908   3.613  1.00 20.00     0.151 C 
HETATM    9  C7  UNL     1     -33.916   4.473   3.989  1.00 20.00     0.096 C 
HETATM   10  O10 UNL     1     -35.171   6.506   4.128  1.00 20.00    -0.293 OA
ENDBRANCH   2   8
TORSDOF 1
