REMARK  2 active torsions:
REMARK  status: ('A' for Active; 'I' for Inactive)
REMARK    1  A    between atoms: C1_1  and  C5_5 
REMARK    2  A    between atoms: C1_1  and  O10_10 
ROOT
HETATM    1  C2  UNL     1     -31.360   8.115   0.083  1.00 20.00     0.015 C 
HETATM    2  C3  UNL     1     -32.379   8.556  -0.980  1.00 20.00     0.006 C 
HETATM    3  C4  UNL     1     -32.433  10.836   0.329  1.00 20.00     0.011 A 
HETATM    4  C5  UNL     1     -32.003   8.485   1.433  1.00 20.00     0.090 C 
HETATM    5  C6  UNL     1     -33.134   9.691  -0.353  1.00 20.00    -0.009 A 
HETATM    6  C7  UNL     1     -32.911   9.646   1.121  1.00 20.00     0.004 A 
ENDROOT
BRANCH   4   7
HETATM    7  C1  UNL     1     -32.756   7.318   1.995  1.00 20.00     0.263 C 
HETATM    8  O9  UNL     1     -32.823   6.222   1.455  1.00 20.00    -0.265 OA
BRANCH   7   9
HETATM    9  O10 UNL     1     -33.338   7.677   3.174  1.00 20.00    -0.326 OA
HETATM   10  C8  UNL     1     -34.095   6.650   3.824  1.00 20.00     0.213 C 
ENDBRANCH   7   9
ENDBRANCH   4   7
TORSDOF 2
