REMARK  2 active torsions:
REMARK  status: ('A' for Active; 'I' for Inactive)
REMARK    1  A    between atoms: C3_3  and  C7_7 
REMARK    2  A    between atoms: C6_6  and  O11_11 
ROOT
HETATM    1  C1  UNL     1     -34.995   5.426   4.409  1.00 20.00    -0.028 C 
HETATM    2  C2  UNL     1     -34.005   4.940   3.648  1.00 20.00     0.002 C 
HETATM    3  C4  UNL     1     -35.205   6.891   4.649  1.00 20.00     0.028 C 
HETATM    4  C5  UNL     1     -34.020   7.750   4.198  1.00 20.00     0.023 C 
HETATM    5  C6  UNL     1     -33.010   5.811   2.933  1.00 20.00     0.158 C 
HETATM    6  C7  UNL     1     -33.443   7.300   2.840  1.00 20.00     0.039 C 
HETATM    7  C8  UNL     1     -34.445   7.559   1.702  1.00 20.00     0.026 C 
ENDROOT
BRANCH   6   8
HETATM    8  C3  UNL     1     -32.224   8.151   2.575  1.00 20.00     0.243 C 
HETATM    9  O10 UNL     1     -32.112   8.884   1.598  1.00 20.00    -0.306 OA
ENDBRANCH   6   8
BRANCH   5  10
HETATM   10  O11 UNL     1     -32.807   5.263   1.630  1.00 20.00    -0.386 OA
HETATM   11  C9  UNL     1     -31.590   5.720   1.063  1.00 20.00     0.202 C 
ENDBRANCH   5  10
TORSDOF 2
