REMARK  0 active torsions:
REMARK  status: ('A' for Active; 'I' for Inactive)
ROOT
HETATM    1  C1  UNL     1     -34.805   5.796   4.104  1.00 20.00     0.020 A 
HETATM    2  C2  UNL     1     -34.185   5.071   3.045  1.00 20.00     0.038 A 
HETATM    3  C3  UNL     1     -34.215   7.048   4.177  1.00 20.00     0.093 A 
HETATM    4  C4  UNL     1     -33.250   5.919   2.526  1.00 20.00     0.073 A 
HETATM    5  C5  UNL     1     -32.397   8.091   2.763  1.00 20.00     0.085 A 
HETATM    6  C6  UNL     1     -31.589   7.570   1.800  1.00 20.00     0.065 A 
HETATM    7  C7  UNL     1     -32.316   8.747   1.474  1.00 20.00     0.061 A 
HETATM    8  N8  UNL     1     -33.294   7.120   3.168  1.00 20.00    -0.337 N 
HETATM    9  S9  UNL     1     -31.990   5.923   1.341  1.00 20.00    -0.097 SA
ENDROOT
TORSDOF 0
