REMARK  2 active torsions:
REMARK  status: ('A' for Active; 'I' for Inactive)
REMARK    1  A    between atoms: C1_1  and  C5_5 
REMARK    2  A    between atoms: C5_5  and  O8_8 
ROOT
HETATM    1  C2  UNL     1     -35.394   5.583   4.627  1.00 20.00     0.007 C 
HETATM    2  C3  UNL     1     -35.659   6.222   3.255  1.00 20.00     0.047 C 
HETATM    3  C4  UNL     1     -34.031   5.117   4.089  1.00 20.00     0.047 C 
HETATM    4  C5  UNL     1     -34.116   6.249   3.017  1.00 20.00     0.136 C 
ENDROOT
BRANCH   4   5
HETATM    5  C1  UNL     1     -33.404   7.580   3.379  1.00 20.00     0.253 C 
HETATM    6  O7  UNL     1     -33.431   8.037   4.518  1.00 20.00    -0.276 OA
HETATM    7 CL9  UNL     1     -32.607   8.290   2.008  1.00 20.00    -0.041 Cl
ENDBRANCH   4   5
BRANCH   4   8
HETATM    8  O8  UNL     1     -33.732   5.825   1.689  1.00 20.00    -0.376 OA
HETATM    9  C6  UNL     1     -32.469   5.194   1.715  1.00 20.00     0.203 C 
ENDBRANCH   4   8
TORSDOF 2
