REMARK  2 active torsions:
REMARK  status: ('A' for Active; 'I' for Inactive)
REMARK    1  A    between atoms: C3_3  and  C5_5 
REMARK    2  A    between atoms: C3_3  and  O8_8 
ROOT
HETATM    1  C1  UNL     1     -32.494   9.019   1.470  1.00 20.00    -0.005 C 
HETATM    2  C2  UNL     1     -32.586   9.504   0.229  1.00 20.00     0.042 C 
HETATM    3  C4  UNL     1     -31.235   7.311   0.243  1.00 20.00     0.097 C 
HETATM    4  C5  UNL     1     -31.875   7.662   1.589  1.00 20.00     0.118 C 
HETATM    5  S9  UNL     1     -31.963   8.448  -0.990  1.00 20.00    -0.141 SA
ENDROOT
BRANCH   4   6
HETATM    6  C3  UNL     1     -32.972   6.707   1.947  1.00 20.00     0.267 C 
HETATM    7  O7  UNL     1     -33.290   5.742   1.265  1.00 20.00    -0.265 OA
BRANCH   6   8
HETATM    8  O8  UNL     1     -33.539   7.085   3.128  1.00 20.00    -0.326 OA
HETATM    9  C6  UNL     1     -34.608   6.254   3.591  1.00 20.00     0.213 C 
ENDBRANCH   6   8
ENDBRANCH   4   6
TORSDOF 2
