REMARK  2 active torsions:
REMARK  status: ('A' for Active; 'I' for Inactive)
REMARK    1  A    between atoms: C2_2  and  C7_7 
REMARK    2  A    between atoms: C3_3  and  C6_6 
ROOT
HETATM    1  C4  UNL     1     -33.980   8.305   2.423  1.00 20.00     0.014 C 
HETATM    2  C5  UNL     1     -33.887   7.679   1.021  1.00 20.00     0.015 C 
HETATM    3  C6  UNL     1     -33.205   7.080   2.977  1.00 20.00     0.067 C 
HETATM    4  C7  UNL     1     -32.674   6.839   1.518  1.00 20.00    -0.011 C 
HETATM    5  C10 UNL     1     -31.314   7.478   1.230  1.00 20.00     0.021 C 
ENDROOT
BRANCH   4   6
HETATM    6  C2  UNL     1     -32.699   5.423   1.067  1.00 20.00    -0.084 C 
HETATM    7  C1  UNL     1     -33.688   4.940   0.301  1.00 20.00     0.015 C 
HETATM    8  C8  UNL     1     -31.553   4.566   1.516  1.00 20.00     0.043 C 
ENDBRANCH   4   6
BRANCH   3   9
HETATM    9  C3  UNL     1     -34.047   5.986   3.659  1.00 20.00     0.128 C 
HETATM   10  C9  UNL     1     -35.234   6.448   4.460  1.00 20.00     0.091 C 
HETATM   11  O11 UNL     1     -33.764   4.794   3.553  1.00 20.00    -0.298 OA
ENDBRANCH   3   9
TORSDOF 2
