REMARK  1 active torsions:
REMARK  status: ('A' for Active; 'I' for Inactive)
REMARK    1  A    between atoms: C3_3  and  C5_5 
ROOT
HETATM    1  C1  UNL     1     -34.018   7.857   4.045  1.00 20.00     0.050 A 
HETATM    2  C2  UNL     1     -33.186   8.253   2.974  1.00 20.00    -0.026 A 
HETATM    3  C3  UNL     1     -34.217   6.500   3.889  1.00 20.00     0.113 A 
HETATM    4  C4  UNL     1     -32.937   7.108   2.252  1.00 20.00     0.060 A 
HETATM    5  C6  UNL     1     -32.607   9.568   2.596  1.00 20.00     0.041 C 
HETATM    6  C7  UNL     1     -32.139   6.973   1.016  1.00 20.00     0.066 C 
HETATM    7  C8  UNL     1     -32.083   9.537   1.142  1.00 20.00     0.005 C 
HETATM    8  C9  UNL     1     -31.293   8.249   0.824  1.00 20.00     0.007 C 
HETATM    9  O11 UNL     1     -33.559   6.034   2.790  1.00 20.00    -0.311 OA
ENDROOT
BRANCH   3  10
HETATM   10  C5  UNL     1     -34.964   5.566   4.660  1.00 20.00     0.295 C 
HETATM   11  O10 UNL     1     -35.056   4.347   4.395  1.00 20.00    -0.299 OA
ENDBRANCH   3  10
TORSDOF 1
