REMARK  0 active torsions:
REMARK  status: ('A' for Active; 'I' for Inactive)
ROOT
HETATM    1  C1  UNL     1     -34.819   6.973   4.762  1.00 20.00     0.004 A 
HETATM    2  C2  UNL     1     -33.851   7.732   4.221  1.00 20.00     0.031 A 
HETATM    3  C3  UNL     1     -35.135   5.677   4.201  1.00 20.00     0.017 A 
HETATM    4  C4  UNL     1     -31.897   5.313   0.437  1.00 20.00     0.044 A 
HETATM    5  C5  UNL     1     -32.133   8.039   2.504  1.00 20.00     0.146 A 
HETATM    6  C6  UNL     1     -34.442   5.247   3.134  1.00 20.00     0.093 A 
HETATM    7  C7  UNL     1     -33.096   7.264   3.057  1.00 20.00     0.053 A 
HETATM    8  C8  UNL     1     -32.784   5.450   1.422  1.00 20.00     0.136 A 
HETATM    9  C9  UNL     1     -31.747   6.509   1.056  1.00 20.00     0.069 A 
HETATM   10  N10 UNL     1     -31.388   7.639   1.415  1.00 20.00    -0.260 NA
HETATM   11  N11 UNL     1     -33.417   5.975   2.523  1.00 20.00    -0.333 N 
ENDROOT
TORSDOF 0
