REMARK  2 active torsions:
REMARK  status: ('A' for Active; 'I' for Inactive)
REMARK    1  A    between atoms: C2_2  and  C3_3 
REMARK    2  A    between atoms: C4_4  and  C5_5 
ROOT
HETATM    1  C1  UNL     1     -32.268   9.786  -0.097  1.00 20.00     0.087 C 
HETATM    2  C2  UNL     1     -32.163   8.456   0.393  1.00 20.00     0.093 C 
HETATM    3  N8  UNL     1     -32.352  10.871  -0.500  1.00 20.00    -0.192 NA
ENDROOT
BRANCH   2   4
HETATM    4  C3  UNL     1     -32.946   8.012   1.385  1.00 20.00     0.012 C 
HETATM    5  C4  UNL     1     -32.867   6.666   1.908  1.00 20.00     0.017 C 
BRANCH   5   6
HETATM    6  C5  UNL     1     -33.648   6.218   2.899  1.00 20.00     0.084 C 
HETATM    7  N9  UNL     1     -34.612   6.903   3.566  1.00 20.00    -0.398 N 
HETATM    8  C6  UNL     1     -36.005   6.463   3.565  1.00 20.00     0.148 C 
HETATM    9  C7  UNL     1     -34.282   7.963   4.515  1.00 20.00     0.148 C 
ENDBRANCH   5   6
ENDBRANCH   2   4
TORSDOF 2
