REMARK  1 active torsions:
REMARK  status: ('A' for Active; 'I' for Inactive)
REMARK    1  A    between atoms: C9_9  and  N10_10 
ROOT
HETATM    1  C1  UNL     1     -33.607   4.941   2.850  1.00 20.00     0.072 A 
HETATM    2  C2  UNL     1     -34.149   5.900   3.606  1.00 20.00    -0.002 A 
HETATM    3  C5  UNL     1     -32.780   5.615   1.831  1.00 20.00     0.243 A 
HETATM    4  C8  UNL     1     -33.754   7.272   3.185  1.00 20.00     0.154 A 
HETATM    5  N10 UNL     1     -32.895   6.978   2.065  1.00 20.00    -0.340 N 
HETATM    6  O11 UNL     1     -32.141   5.028   0.974  1.00 20.00    -0.268 OA
ENDROOT
BRANCH   5   7
HETATM    7  C9  UNL     1     -32.234   7.983   1.279  1.00 20.00     0.094 C 
HETATM    8  C6  UNL     1     -32.644   7.942  -0.198  1.00 20.00     0.052 C 
HETATM    9  C3  UNL     1     -32.640   9.384  -0.580  1.00 20.00    -0.029 C 
HETATM   10  C4  UNL     1     -32.584  10.183   0.489  1.00 20.00    -0.029 C 
HETATM   11  C7  UNL     1     -32.540   9.405   1.762  1.00 20.00     0.052 C 
ENDBRANCH   5   7
TORSDOF 1
