REMARK  1 active torsions:
REMARK  status: ('A' for Active; 'I' for Inactive)
REMARK    1  A    between atoms: C8_8  and  C9_9 
ROOT
HETATM    1  C1  UNL     1     -34.973   6.057   3.834  1.00 20.00     0.008 A 
HETATM    2  C2  UNL     1     -33.724   7.664   2.338  1.00 20.00     0.026 A 
HETATM    3  C3  UNL     1     -31.955   6.350   1.660  1.00 20.00     0.026 A 
HETATM    4  C4  UNL     1     -34.921   4.798   4.303  1.00 20.00    -0.022 A 
HETATM    5  C5  UNL     1     -32.759   4.363   3.005  1.00 20.00    -0.011 A 
HETATM    6  C6  UNL     1     -33.927   6.485   2.950  1.00 20.00    -0.026 A 
HETATM    7  C7  UNL     1     -32.827   5.620   2.547  1.00 20.00    -0.029 A 
HETATM    8  C8  UNL     1     -32.506   7.570   1.546  1.00 20.00     0.003 A 
HETATM    9  C10 UNL     1     -33.817   3.815   3.945  1.00 20.00     0.055 A 
ENDROOT
BRANCH   8  10
HETATM   10  C9  UNL     1     -31.952   8.643   0.738  1.00 20.00     0.269 C 
HETATM   11  O11 UNL     1     -32.475   9.754   0.647  1.00 20.00    -0.301 OA
ENDBRANCH   8  10
TORSDOF 1
