REMARK  1 active torsions:
REMARK  status: ('A' for Active; 'I' for Inactive)
REMARK    1  A    between atoms: C3_3  and  C4_4 
ROOT
HETATM    1  C1  UNL     1     -32.696   6.415   1.859  1.00 20.00     0.012 A 
HETATM    2  C2  UNL     1     -31.785   7.304   1.469  1.00 20.00     0.003 A 
HETATM    3  C4  UNL     1     -33.949   7.112   2.225  1.00 20.00     0.231 A 
HETATM    4  C5  UNL     1     -32.353   8.677   1.552  1.00 20.00     0.141 A 
HETATM    5  C6  UNL     1     -32.352   9.403   0.218  1.00 20.00     0.044 C 
HETATM    6  O8  UNL     1     -33.720   8.507   1.989  1.00 20.00    -0.364 OA
ENDROOT
BRANCH   3   7
HETATM    7  C3  UNL     1     -34.209   6.932   3.685  1.00 20.00     0.251 C 
HETATM    8  O7  UNL     1     -34.933   6.034   4.105  1.00 20.00    -0.277 OA
HETATM    9 CL9  UNL     1     -33.380   8.116   4.649  1.00 20.00    -0.041 Cl
ENDBRANCH   3   7
TORSDOF 1
