REMARK  3 active torsions:
REMARK  status: ('A' for Active; 'I' for Inactive)
REMARK    1  A    between atoms: C1_1  and  C3_3 
REMARK    2  A    between atoms: C2_2  and  N8_8 
REMARK    3  A    between atoms: C4_4  and  C5_5 
ROOT
HETATM    1  C1  UNL     1     -32.240   7.892   1.188  1.00 20.00    -0.056 C 
HETATM    2  C2  UNL     1     -32.649   7.731   2.305  1.00 20.00     0.012 C 
ENDROOT
BRANCH   1   3
HETATM    3  C3  UNL     1     -31.753   8.077  -0.134  1.00 20.00     0.069 C 
HETATM    4  C4  UNL     1     -32.096   9.149  -0.856  1.00 20.00     0.050 C 
BRANCH   4   5
HETATM    5  C5  UNL     1     -32.998  10.153  -0.260  1.00 20.00     0.259 C 
HETATM    6  O9  UNL     1     -32.705  10.759   0.764  1.00 20.00    -0.302 OA
ENDBRANCH   4   5
ENDBRANCH   1   3
BRANCH   2   7
HETATM    7  N8  UNL     1     -33.138   7.538   3.643  1.00 20.00    -0.350 N 
HETATM    8  C6  UNL     1     -34.471   6.978   3.809  1.00 20.00     0.159 C 
HETATM    9  C7  UNL     1     -32.644   8.425   4.686  1.00 20.00     0.159 C 
ENDBRANCH   2   7
TORSDOF 3
