REMARK  1 active torsions:
REMARK  status: ('A' for Active; 'I' for Inactive)
REMARK    1  A    between atoms: C1_1  and  C5_5 
ROOT
HETATM    1  C2  UNL     1     -31.697   5.635   1.113  1.00 20.00     0.002 C 
HETATM    2  C3  UNL     1     -32.821   5.448   2.134  1.00 20.00     0.017 C 
HETATM    3  C4  UNL     1     -31.597   7.134   0.843  1.00 20.00     0.010 C 
HETATM    4  C5  UNL     1     -33.435   6.843   2.370  1.00 20.00     0.023 C 
HETATM    5  C6  UNL     1     -32.252   7.813   2.062  1.00 20.00    -0.034 C 
HETATM    6  C8  UNL     1     -34.665   7.029   1.465  1.00 20.00     0.024 C 
HETATM    7  C9  UNL     1     -31.221   7.884   3.213  1.00 20.00     0.016 C 
HETATM    8  C10 UNL     1     -32.677   9.247   1.717  1.00 20.00     0.016 C 
ENDROOT
BRANCH   4   9
HETATM    9  C1  UNL     1     -33.929   6.964   3.787  1.00 20.00     0.132 C 
HETATM   10  C7  UNL     1     -34.987   5.986   4.221  1.00 20.00     0.091 C 
HETATM   11  O11 UNL     1     -33.488   7.819   4.554  1.00 20.00    -0.298 OA
ENDBRANCH   4   9
TORSDOF 1
