REMARK  0 active torsions:
REMARK  status: ('A' for Active; 'I' for Inactive)
ROOT
HETATM    1  C1  UNL     1     -32.371   7.920   2.014  1.00 20.00     0.095 C 
HETATM    2  C2  UNL     1     -34.767   5.346   4.688  1.00 20.00     0.007 C 
HETATM    3  C3  UNL     1     -33.845   4.739   3.625  1.00 20.00     0.008 C 
HETATM    4  C4  UNL     1     -34.405   7.912   4.374  1.00 20.00     0.276 C 
HETATM    5  C5  UNL     1     -32.608   7.028   3.161  1.00 20.00     0.330 C 
HETATM    6  C6  UNL     1     -34.926   6.605   3.806  1.00 20.00     0.021 C 
HETATM    7  C7  UNL     1     -33.797   6.100   2.895  1.00 20.00     0.038 C 
HETATM    8  N8  UNL     1     -32.184   8.623   1.110  1.00 20.00    -0.195 NA
HETATM    9  N9  UNL     1     -32.938   7.822   4.357  1.00 20.00     0.102 N 
HETATM   10  H19 UNL     1     -32.509   8.746   4.338  1.00 20.00     0.317 HD
ENDROOT
TORSDOF 0
