REMARK  1 active torsions:
REMARK  status: ('A' for Active; 'I' for Inactive)
REMARK    1  A    between atoms: C2_2  and  C3_3 
ROOT
HETATM    1  C1  UNL     1     -33.701   7.449   3.596  1.00 20.00    -0.015 C 
HETATM    2  C2  UNL     1     -32.903   7.263   2.542  1.00 20.00    -0.012 C 
HETATM    3  C4  UNL     1     -34.563   6.252   3.835  1.00 20.00     0.032 C 
HETATM    4  C5  UNL     1     -33.098   5.923   1.900  1.00 20.00     0.022 C 
HETATM    5  C6  UNL     1     -33.861   5.152   3.012  1.00 20.00    -0.007 C 
HETATM    6  C8  UNL     1     -31.823   5.251   1.405  1.00 20.00     0.015 C 
HETATM    7  C9  UNL     1     -32.977   4.291   3.923  1.00 20.00     0.011 C 
ENDROOT
BRANCH   2   8
HETATM    8  C3  UNL     1     -32.005   8.304   2.069  1.00 20.00     0.151 C 
HETATM    9  C7  UNL     1     -30.946   8.827   3.016  1.00 20.00     0.096 C 
HETATM   10  O10 UNL     1     -32.104   8.763   0.922  1.00 20.00    -0.293 OA
ENDBRANCH   2   8
TORSDOF 1
