REMARK  4 active torsions:
REMARK  status: ('A' for Active; 'I' for Inactive)
REMARK    1  A    between atoms: C1_1  and  C2_2 
REMARK    2  A    between atoms: C1_1  and  C3_3 
REMARK    3  A    between atoms: C2_2  and  C8_8 
REMARK    4  A    between atoms: C3_3  and  C6_6 
ROOT
HETATM    1  C1  UNL     1     -33.154   6.841   2.398  1.00 20.00     0.125 C 
HETATM    2 CL11 UNL     1     -32.693   5.564   1.320  1.00 20.00    -0.076 Cl
ENDROOT
BRANCH   1   3
HETATM    3  C2  UNL     1     -33.974   6.670   3.466  1.00 20.00     0.174 C 
HETATM    4  O9  UNL     1     -34.566   5.634   3.889  1.00 20.00    -0.291 OA
BRANCH   3   5
HETATM    5  C8  UNL     1     -34.265   7.853   4.403  1.00 20.00     0.080 C 
HETATM    6  C7  UNL     1     -33.270   7.954   5.557  1.00 20.00     0.013 C 
ENDBRANCH   3   5
ENDBRANCH   1   3
BRANCH   1   7
HETATM    7  C3  UNL     1     -32.530   8.175   2.124  1.00 20.00     0.178 C 
HETATM    8  O10 UNL     1     -31.769   8.731   2.906  1.00 20.00    -0.291 OA
BRANCH   7   9
HETATM    9  C6  UNL     1     -32.848   8.819   0.816  1.00 20.00     0.061 A 
HETATM   10  C4  UNL     1     -32.331  10.195   0.555  1.00 20.00     0.013 A 
HETATM   11  C5  UNL     1     -31.743   9.019  -0.166  1.00 20.00     0.013 A 
ENDBRANCH   7   9
ENDBRANCH   1   7
TORSDOF 4
