REMARK  2 active torsions:
REMARK  status: ('A' for Active; 'I' for Inactive)
REMARK    1  A    between atoms: C1_1  and  C8_8 
REMARK    2  A    between atoms: C2_2  and  C9_9 
ROOT
HETATM    1  C3  UNL     1     -33.647   5.664   2.975  1.00 20.00     0.142 C 
HETATM    2  C4  UNL     1     -34.881   5.706   3.896  1.00 20.00     0.081 C 
HETATM    3  C5  UNL     1     -34.533   7.188   4.165  1.00 20.00     0.032 C 
HETATM    4  C8  UNL     1     -33.123   7.008   3.531  1.00 20.00     0.135 C 
HETATM    5  O10 UNL     1     -33.252   4.877   2.141  1.00 20.00    -0.297 OA
ENDROOT
BRANCH   4   6
HETATM    6  C1  UNL     1     -32.773   7.958   2.504  1.00 20.00    -0.094 C 
HETATM    7  C2  UNL     1     -32.482   8.749   1.649  1.00 20.00    -0.101 C 
BRANCH   7   8
HETATM    8  C9  UNL     1     -32.127   9.713   0.608  1.00 20.00     0.065 A 
HETATM    9  C6  UNL     1     -33.210  10.190  -0.299  1.00 20.00     0.018 A 
HETATM   10  C7  UNL     1     -32.159   9.251  -0.810  1.00 20.00     0.018 A 
ENDBRANCH   7   8
ENDBRANCH   4   6
TORSDOF 2
