REMARK  0 active torsions:
REMARK  status: ('A' for Active; 'I' for Inactive)
ROOT
HETATM    1  C1  UNL     1     -32.504   9.472   0.168  1.00 20.00     0.012 C 
HETATM    2  C2  UNL     1     -32.037   8.640   0.896  1.00 20.00    -0.112 C 
HETATM    3  C3  UNL     1     -33.414   6.023   2.052  1.00 20.00    -0.015 C 
HETATM    4  C4  UNL     1     -33.962   6.755   3.034  1.00 20.00    -0.020 C 
HETATM    5  C5  UNL     1     -33.144   7.829   3.674  1.00 20.00     0.156 C 
HETATM    6  C6  UNL     1     -32.040   6.231   1.486  1.00 20.00     0.045 C 
HETATM    7  C7  UNL     1     -31.694   7.985   3.257  1.00 20.00     0.101 C 
HETATM    8  C8  UNL     1     -31.463   7.615   1.793  1.00 20.00     0.075 C 
HETATM    9  C9  UNL     1     -35.349   6.536   3.548  1.00 20.00     0.052 C 
HETATM   10  O10 UNL     1     -33.622   8.530   4.565  1.00 20.00    -0.293 OA
ENDROOT
TORSDOF 0
