REMARK  3 active torsions:
REMARK  status: ('A' for Active; 'I' for Inactive)
REMARK    1  A    between atoms: C7_7  and  C8_8 
REMARK    2  A    between atoms: C8_8  and  C9_9 
REMARK    3  A    between atoms: C9_9  and  N10_10 
ROOT
HETATM    1  C1  UNL     1     -35.203   5.436   4.285  1.00 20.00     0.012 C 
HETATM    2  C3  UNL     1     -34.960   6.600   4.120  1.00 20.00    -0.117 C 
HETATM    3  C7  UNL     1     -34.668   8.026   3.920  1.00 20.00     0.096 C 
ENDROOT
BRANCH   3   4
HETATM    4  C8  UNL     1     -33.309   8.255   3.245  1.00 20.00     0.061 C 
BRANCH   4   5
HETATM    5  C9  UNL     1     -33.193   7.668   1.824  1.00 20.00     0.300 C 
HETATM    6  C4  UNL     1     -32.873   6.231   1.857  1.00 20.00    -0.081 C 
HETATM    7  C2  UNL     1     -32.618   5.058   1.881  1.00 20.00     0.014 C 
BRANCH   5   8
HETATM    8  N10 UNL     1     -32.138   8.384   1.102  1.00 20.00     0.095 N 
HETATM    9  C5  UNL     1     -30.984   8.603   1.972  1.00 20.00     0.310 C 
HETATM   10  C6  UNL     1     -32.645   9.657   0.592  1.00 20.00     0.310 C 
ENDBRANCH   5   8
ENDBRANCH   4   5
ENDBRANCH   3   4
TORSDOF 3
