REMARK  1 active torsions:
REMARK  status: ('A' for Active; 'I' for Inactive)
REMARK    1  A    between atoms: C3_3  and  C7_7 
ROOT
HETATM    1  C1  UNL     1     -33.801   5.240   3.004  1.00 20.00    -0.030 C 
HETATM    2  C2  UNL     1     -33.057   5.618   1.953  1.00 20.00    -0.025 C 
HETATM    3  C4  UNL     1     -34.024   6.161   4.170  1.00 20.00     0.027 C 
HETATM    4  C5  UNL     1     -33.973   7.647   3.787  1.00 20.00     0.010 C 
HETATM    5  C6  UNL     1     -32.371   6.912   1.876  1.00 20.00     0.025 A 
HETATM    6  C7  UNL     1     -33.099   8.133   1.379  1.00 20.00     0.085 A 
HETATM    7  C8  UNL     1     -32.831   7.965   2.860  1.00 20.00     0.007 A 
ENDROOT
BRANCH   6   8
HETATM    8  C3  UNL     1     -32.354   9.158   0.637  1.00 20.00     0.224 C 
HETATM    9  O9  UNL     1     -31.328   8.890   0.020  1.00 20.00    -0.279 OA
HETATM   10 CL10 UNL     1     -33.101  10.722   0.755  1.00 20.00    -0.043 Cl
ENDBRANCH   6   8
TORSDOF 1
