REMARK  2 active torsions:
REMARK  status: ('A' for Active; 'I' for Inactive)
REMARK    1  A    between atoms: C1_1  and  N9_9 
REMARK    2  A    between atoms: C4_4  and  C8_8 
ROOT
HETATM    1  C2  UNL     1     -35.403   6.589   4.401  1.00 20.00     0.031 C 
HETATM    2  C3  UNL     1     -33.602   5.982   2.926  1.00 20.00     0.130 C 
HETATM    3  C4  UNL     1     -34.621   5.372   3.883  1.00 20.00     0.005 C 
HETATM    4  C5  UNL     1     -34.424   7.766   4.342  1.00 20.00     0.083 C 
HETATM    5  C6  UNL     1     -33.831   8.114   5.704  1.00 20.00     0.032 C 
HETATM    6  N9  UNL     1     -33.409   7.347   3.383  1.00 20.00    -0.355 N 
ENDROOT
BRANCH   3   7
HETATM    7  C8  UNL     1     -33.954   4.573   4.998  1.00 20.00     0.002 C 
HETATM    8  C7  UNL     1     -33.160   3.421   4.465  1.00 20.00     0.005 C 
ENDBRANCH   3   7
BRANCH   6   9
HETATM    9  C1  UNL     1     -32.457   8.185   2.847  1.00 20.00     0.351 C 
HETATM   10  O10 UNL     1     -31.666   7.924   1.949  1.00 20.00    -0.284 OA
ENDBRANCH   6   9
TORSDOF 2
