REMARK  2 active torsions:
REMARK  status: ('A' for Active; 'I' for Inactive)
REMARK    1  A    between atoms: C1_1  and  C4_4 
REMARK    2  A    between atoms: C2_2  and  C5_5 
ROOT
HETATM    1  C5  UNL     1     -33.292   5.831   2.467  1.00 20.00     0.235 A 
HETATM    2  C6  UNL     1     -34.099   6.024   3.730  1.00 20.00     0.092 A 
HETATM    3  C8  UNL     1     -34.376   7.383   4.295  1.00 20.00     0.049 C 
HETATM    4  C9  UNL     1     -34.215   4.874   4.682  1.00 20.00     0.049 C 
HETATM    5  O10 UNL     1     -34.724   5.788   2.462  1.00 20.00    -0.357 OA
ENDROOT
BRANCH   1   6
HETATM    6  C2  UNL     1     -32.767   6.956   1.736  1.00 20.00    -0.066 C 
HETATM    7  C1  UNL     1     -32.329   7.894   1.127  1.00 20.00    -0.070 C 
BRANCH   7   8
HETATM    8  C4  UNL     1     -31.803   9.007   0.405  1.00 20.00    -0.018 C 
HETATM    9  C3  UNL     1     -32.647   9.868  -0.181  1.00 20.00     0.028 C 
HETATM   10  C7  UNL     1     -30.315   9.180   0.323  1.00 20.00     0.057 C 
ENDBRANCH   7   8
ENDBRANCH   1   6
TORSDOF 2
