REMARK  2 active torsions:
REMARK  status: ('A' for Active; 'I' for Inactive)
REMARK    1  A    between atoms: C2_2  and  C5_5 
REMARK    2  A    between atoms: C2_2  and  C9_9 
ROOT
HETATM    1  C1  UNL     1     -32.177   6.033   1.693  1.00 20.00     0.225 C 
HETATM    2  C2  UNL     1     -32.781   7.099   2.144  1.00 20.00    -0.014 C 
HETATM    3  O10 UNL     1     -31.634   5.071   1.289  1.00 20.00    -0.284 OA
ENDROOT
BRANCH   2   4
HETATM    4  C5  UNL     1     -32.332   8.378   1.546  1.00 20.00     0.019 A 
HETATM    5  C3  UNL     1     -31.731   8.343   0.181  1.00 20.00     0.010 A 
HETATM    6  C4  UNL     1     -33.099   8.919   0.387  1.00 20.00     0.010 A 
ENDBRANCH   2   4
BRANCH   2   7
HETATM    7  C9  UNL     1     -33.916   7.093   3.173  1.00 20.00    -0.024 C 
HETATM    8  C6  UNL     1     -35.189   7.674   2.532  1.00 20.00     0.019 C 
HETATM    9  C7  UNL     1     -33.544   7.932   4.412  1.00 20.00     0.019 C 
HETATM   10  C8  UNL     1     -34.231   5.662   3.664  1.00 20.00     0.019 C 
ENDBRANCH   2   7
TORSDOF 2
