REMARK  1 active torsions:
REMARK  status: ('A' for Active; 'I' for Inactive)
REMARK    1  A    between atoms: C3_3  and  C6_6 
ROOT
HETATM    1  C1  UNL     1     -35.028   6.931   4.621  1.00 20.00    -0.030 C 
HETATM    2  C2  UNL     1     -34.978   5.616   4.374  1.00 20.00    -0.026 C 
HETATM    3  C4  UNL     1     -34.231   7.947   3.859  1.00 20.00     0.032 C 
HETATM    4  C5  UNL     1     -34.119   5.003   3.295  1.00 20.00     0.018 C 
HETATM    5  C6  UNL     1     -33.662   6.069   2.271  1.00 20.00     0.098 C 
HETATM    6  C7  UNL     1     -33.137   7.341   2.956  1.00 20.00    -0.000 C 
HETATM    7  C8  UNL     1     -32.975   4.235   3.970  1.00 20.00     0.015 C 
HETATM    8  C9  UNL     1     -32.664   8.398   1.952  1.00 20.00     0.011 C 
ENDROOT
BRANCH   5   9
HETATM    9  C3  UNL     1     -32.630   5.451   1.340  1.00 20.00     0.178 C 
HETATM   10  O10 UNL     1     -31.543   5.116   1.886  1.00 20.00    -0.648 OA
HETATM   11  O11 UNL     1     -32.996   5.354   0.135  1.00 20.00    -0.648 OA
ENDBRANCH   5   9
TORSDOF 1
