REMARK  3 active torsions:
REMARK  status: ('A' for Active; 'I' for Inactive)
REMARK    1  A    between atoms: C3_3  and  C7_7 
REMARK    2  A    between atoms: C5_5  and  C8_8 
REMARK    3  A    between atoms: C6_6  and  C9_9 
ROOT
HETATM    1  C7  UNL     1     -33.251   7.003   3.244  1.00 20.00     0.097 A 
HETATM    2  C8  UNL     1     -32.612   6.768   1.889  1.00 20.00     0.013 A 
HETATM    3  C9  UNL     1     -33.541   7.944   2.090  1.00 20.00     0.013 A 
ENDROOT
BRANCH   1   4
HETATM    4  C3  UNL     1     -34.317   6.095   3.631  1.00 20.00     0.177 C 
HETATM    5  O10 UNL     1     -34.011   4.871   3.622  1.00 20.00    -0.648 OA
HETATM    6  O11 UNL     1     -35.410   6.656   3.924  1.00 20.00    -0.648 OA
ENDBRANCH   1   4
BRANCH   2   7
HETATM    7  C5  UNL     1     -31.309   7.419   1.398  1.00 20.00     0.014 C 
HETATM    8  C1  UNL     1     -31.558   8.026   0.025  1.00 20.00    -0.025 C 
HETATM    9  C2  UNL     1     -32.385   9.073   0.204  1.00 20.00    -0.025 C 
HETATM   10  C6  UNL     1     -32.680   9.154   1.695  1.00 20.00     0.014 C 
HETATM   11  C4  UNL     1     -31.273   8.749   2.176  1.00 20.00     0.017 C 
ENDBRANCH   2   7
TORSDOF 3
