REMARK  3 active torsions:
REMARK  status: ('A' for Active; 'I' for Inactive)
REMARK    1  A    between atoms: C3_3  and  C7_7 
REMARK    2  A    between atoms: C4_4  and  C6_6 
REMARK    3  A    between atoms: C4_4  and  O11_11 
ROOT
HETATM    1  C1  UNL     1     -34.092   5.243   3.808  1.00 20.00     0.074 C 
HETATM    2  C5  UNL     1     -34.555   6.952   2.026  1.00 20.00     0.046 A 
HETATM    3  C6  UNL     1     -33.066   6.777   2.099  1.00 20.00     0.114 A 
HETATM    4  C7  UNL     1     -33.914   6.606   3.360  1.00 20.00     0.079 A 
HETATM    5  N9  UNL     1     -34.235   4.149   4.168  1.00 20.00    -0.196 NA
ENDROOT
BRANCH   4   6
HETATM    6  C3  UNL     1     -33.885   7.696   4.349  1.00 20.00    -0.012 C 
HETATM    7  C2  UNL     1     -32.992   7.784   5.340  1.00 20.00     0.008 C 
ENDBRANCH   4   6
BRANCH   3   8
HETATM    8  C4  UNL     1     -32.194   7.946   1.916  1.00 20.00     0.264 C 
HETATM    9  O10 UNL     1     -31.697   8.581   2.836  1.00 20.00    -0.265 OA
BRANCH   8  10
HETATM   10  O11 UNL     1     -32.040   8.196   0.584  1.00 20.00    -0.326 OA
HETATM   11  C8  UNL     1     -31.209   9.315   0.261  1.00 20.00     0.213 C 
ENDBRANCH   8  10
ENDBRANCH   3   8
TORSDOF 3
