REMARK  1 active torsions:
REMARK  status: ('A' for Active; 'I' for Inactive)
REMARK    1  A    between atoms: C1_1  and  C4_4 
ROOT
HETATM    1  C1  UNL     1     -33.818   4.665   3.748  1.00 20.00    -0.068 C 
HETATM    2  C2  UNL     1     -33.568   3.553   4.126  1.00 20.00    -0.108 C 
HETATM    3  C6  UNL     1     -33.262   2.199   4.587  1.00 20.00     0.112 C 
ENDROOT
BRANCH   1   4
HETATM    4  C4  UNL     1     -34.121   6.009   3.291  1.00 20.00     0.129 C 
HETATM    5  C5  UNL     1     -33.460   6.444   1.929  1.00 20.00     0.016 C 
HETATM    6  C3  UNL     1     -32.956   7.644   2.761  1.00 20.00     0.182 C 
HETATM    7  C8  UNL     1     -34.398   6.823   0.786  1.00 20.00     0.021 C 
HETATM    8  C9  UNL     1     -32.304   5.581   1.412  1.00 20.00     0.021 C 
HETATM    9  O10 UNL     1     -33.277   6.963   4.002  1.00 20.00    -0.366 OA
HETATM   10  C7  UNL     1     -35.590   6.343   3.541  1.00 20.00     0.061 C 
ENDBRANCH   1   4
TORSDOF 1
