REMARK  1 active torsions:
REMARK  status: ('A' for Active; 'I' for Inactive)
REMARK    1  A    between atoms: C1_1  and  C6_6 
ROOT
HETATM    1  C2  UNL     1     -32.274   6.687   4.295  1.00 20.00     0.010 C 
HETATM    2  C3  UNL     1     -34.329   5.216   4.282  1.00 20.00     0.010 C 
HETATM    3  C4  UNL     1     -33.261   5.587   2.250  1.00 20.00     0.010 C 
HETATM    4  C5  UNL     1     -34.579   7.647   4.614  1.00 20.00     0.010 C 
HETATM    5  C6  UNL     1     -33.558   8.065   2.572  1.00 20.00     0.081 C 
HETATM    6  C7  UNL     1     -32.915   5.386   3.725  1.00 20.00    -0.013 C 
HETATM    7  C8  UNL     1     -33.182   7.934   4.053  1.00 20.00    -0.001 C 
HETATM    8  C9  UNL     1     -35.011   6.471   3.720  1.00 20.00    -0.009 C 
HETATM    9  C10 UNL     1     -34.286   6.731   2.342  1.00 20.00     0.003 C 
ENDROOT
BRANCH   5  10
HETATM   10  C1  UNL     1     -32.399   8.349   1.668  1.00 20.00     0.223 C 
HETATM   11  O11 UNL     1     -31.435   7.593   1.598  1.00 20.00    -0.279 OA
HETATM   12 CL12 UNL     1     -32.609   9.828   0.781  1.00 20.00    -0.043 Cl
ENDBRANCH   5  10
TORSDOF 1
