REMARK  1 active torsions:
REMARK  status: ('A' for Active; 'I' for Inactive)
REMARK    1  A    between atoms: C4_4  and  C7_7 
ROOT
HETATM    1  C1  UNL     1     -31.266   7.200   1.428  1.00 20.00    -0.024 C 
HETATM    2  C2  UNL     1     -31.601   7.666   2.643  1.00 20.00    -0.013 C 
HETATM    3  C3  UNL     1     -33.647   6.464   2.572  1.00 20.00     0.140 C 
HETATM    4  C5  UNL     1     -33.352   5.893   1.181  1.00 20.00     0.088 C 
HETATM    5  C6  UNL     1     -32.544   7.087   0.613  1.00 20.00     0.027 C 
HETATM    6  C7  UNL     1     -33.339   8.281   1.177  1.00 20.00     0.074 C 
HETATM    7  C8  UNL     1     -33.095   7.894   2.645  1.00 20.00     0.045 C 
HETATM    8  C9  UNL     1     -33.683   8.793   3.700  1.00 20.00     0.029 C 
HETATM    9  O10 UNL     1     -34.203   5.859   3.475  1.00 20.00    -0.297 OA
ENDROOT
BRANCH   6  10
HETATM   10  C4  UNL     1     -32.818   9.618   0.730  1.00 20.00     0.237 C 
HETATM   11  O11 UNL     1     -31.894   9.752  -0.066  1.00 20.00    -0.306 OA
ENDBRANCH   6  10
TORSDOF 1
