REMARK  0 active torsions:
REMARK  status: ('A' for Active; 'I' for Inactive)
ROOT
HETATM    1  C1  UNL     1     -32.501   9.743   0.895  1.00 20.00     0.089 C 
HETATM    2  C2  UNL     1     -32.996   7.618   1.915  1.00 20.00     0.017 C 
HETATM    3  C3  UNL     1     -32.420   8.328   0.937  1.00 20.00     0.118 C 
HETATM    4  C4  UNL     1     -33.768   8.264   3.040  1.00 20.00     0.059 C 
HETATM    5  C5  UNL     1     -34.599   7.099   3.586  1.00 20.00     0.026 C 
HETATM    6  C6  UNL     1     -33.764   5.852   3.287  1.00 20.00     0.122 C 
HETATM    7  C7  UNL     1     -32.289   5.257   1.344  1.00 20.00     0.149 C 
HETATM    8  N8  UNL     1     -32.563  10.901   0.855  1.00 20.00    -0.192 NA
HETATM    9  N9  UNL     1     -33.026   6.247   2.096  1.00 20.00    -0.388 N 
ENDROOT
TORSDOF 0
