REMARK  1 active torsions:
REMARK  status: ('A' for Active; 'I' for Inactive)
REMARK    1  A    between atoms: C2_2  and  C6_6 
ROOT
HETATM    1  C1  UNL     1     -33.229   6.047   2.349  1.00 20.00     0.139 C 
HETATM    2  C3  UNL     1     -34.076   5.518   3.488  1.00 20.00     0.089 C 
HETATM    3  C4  UNL     1     -35.343   6.334   3.680  1.00 20.00     0.081 C 
HETATM    4  C5  UNL     1     -33.412   8.332   3.365  1.00 20.00     0.093 C 
HETATM    5  C6  UNL     1     -33.280   7.541   2.067  1.00 20.00     0.133 C 
HETATM    6  O8  UNL     1     -32.521   5.285   1.689  1.00 20.00    -0.297 OA
HETATM    7  S10 UNL     1     -35.000   8.042   4.212  1.00 20.00    -0.168 SA
ENDROOT
BRANCH   5   8
HETATM    8  C2  UNL     1     -32.064   8.023   1.335  1.00 20.00     0.135 C 
HETATM    9  C7  UNL     1     -32.260   9.163   0.373  1.00 20.00     0.091 C 
HETATM   10  O9  UNL     1     -30.959   7.512   1.513  1.00 20.00    -0.298 OA
ENDBRANCH   5   8
TORSDOF 1
