REMARK  0 active torsions:
REMARK  status: ('A' for Active; 'I' for Inactive)
ROOT
HETATM    1  C1  UNL     1     -32.529   8.932   1.968  1.00 20.00     0.013 A 
HETATM    2  C2  UNL     1     -31.759   9.134   0.888  1.00 20.00    -0.025 A 
HETATM    3  C3  UNL     1     -32.910   7.603   2.317  1.00 20.00     0.035 A 
HETATM    4  C4  UNL     1     -32.544   6.517   1.628  1.00 20.00    -0.046 A 
HETATM    5  C5  UNL     1     -33.742   7.155   3.448  1.00 20.00     0.254 A 
HETATM    6  C6  UNL     1     -31.263   8.012   0.006  1.00 20.00     0.031 A 
HETATM    7  C7  UNL     1     -31.689   6.577   0.407  1.00 20.00     0.040 A 
HETATM    8  C8  UNL     1     -33.077   5.254   2.207  1.00 20.00     0.161 A 
HETATM    9  C9  UNL     1     -34.541   4.931   4.269  1.00 20.00     0.153 C 
HETATM   10  N10 UNL     1     -33.811   5.769   3.342  1.00 20.00    -0.348 N 
HETATM   11  O11 UNL     1     -34.244   7.891   4.280  1.00 20.00    -0.267 OA
ENDROOT
TORSDOF 0
