REMARK  2 active torsions:
REMARK  status: ('A' for Active; 'I' for Inactive)
REMARK    1  A    between atoms: C3_3  and  C5_5 
REMARK    2  A    between atoms: C3_3  and  O11_11 
ROOT
HETATM    1  C1  UNL     1     -32.478   9.217   0.624  1.00 20.00     0.012 C 
HETATM    2  C2  UNL     1     -32.068   8.239   1.188  1.00 20.00    -0.111 C 
HETATM    3  C4  UNL     1     -31.578   7.070   1.861  1.00 20.00     0.087 A 
HETATM    4  C5  UNL     1     -32.435   6.357   2.882  1.00 20.00     0.111 A 
HETATM    5  C6  UNL     1     -32.147   5.698   1.545  1.00 20.00    -0.019 A 
HETATM    6  C7  UNL     1     -31.183   4.537   1.540  1.00 20.00     0.017 C 
HETATM    7  C8  UNL     1     -33.256   5.552   0.528  1.00 20.00     0.017 C 
ENDROOT
BRANCH   4   8
HETATM    8  C3  UNL     1     -33.783   6.834   3.220  1.00 20.00     0.264 C 
HETATM    9  O10 UNL     1     -34.161   7.987   3.061  1.00 20.00    -0.265 OA
BRANCH   8  10
HETATM   10  O11 UNL     1     -34.519   5.804   3.726  1.00 20.00    -0.326 OA
HETATM   11  C9  UNL     1     -35.861   6.131   4.099  1.00 20.00     0.213 C 
ENDBRANCH   8  10
ENDBRANCH   4   8
TORSDOF 2
