REMARK  1 active torsions:
REMARK  status: ('A' for Active; 'I' for Inactive)
REMARK    1  A    between atoms: C2_2  and  C6_6 
ROOT
HETATM    1  C1  UNL     1     -32.430   8.717   1.728  1.00 20.00    -0.067 C 
HETATM    2  C3  UNL     1     -32.373   9.186   0.476  1.00 20.00    -0.085 C 
HETATM    3  C4  UNL     1     -32.774   9.565   2.921  1.00 20.00     0.036 C 
HETATM    4  C5  UNL     1     -32.283   8.722   4.094  1.00 20.00     0.009 C 
HETATM    5  C6  UNL     1     -32.099   7.311   2.163  1.00 20.00     0.080 C 
HETATM    6  C7  UNL     1     -32.505   7.271   3.647  1.00 20.00    -0.004 C 
HETATM    7  C8  UNL     1     -32.025   8.306  -0.689  1.00 20.00     0.043 C 
HETATM    8  C9  UNL     1     -32.652  10.626   0.152  1.00 20.00     0.043 C 
HETATM    9  C10 UNL     1     -33.943   6.825   3.926  1.00 20.00     0.011 C 
ENDROOT
BRANCH   5  10
HETATM   10  C2  UNL     1     -32.778   6.286   1.305  1.00 20.00     0.240 C 
HETATM   11  O11 UNL     1     -32.324   5.165   1.103  1.00 20.00    -0.306 OA
ENDBRANCH   5  10
TORSDOF 1
