REMARK  1 active torsions:
REMARK  status: ('A' for Active; 'I' for Inactive)
REMARK    1  A    between atoms: C2_2  and  C3_3 
ROOT
HETATM    1  C1  UNL     1     -32.174   6.734   1.676  1.00 20.00    -0.009 C 
HETATM    2  C2  UNL     1     -32.815   7.931   1.838  1.00 20.00    -0.007 C 
HETATM    3  C4  UNL     1     -34.693   5.832   4.277  1.00 20.00     0.002 C 
HETATM    4  C5  UNL     1     -33.469   5.169   3.586  1.00 20.00     0.009 C 
HETATM    5  C6  UNL     1     -34.756   7.282   3.701  1.00 20.00     0.015 C 
HETATM    6  C7  UNL     1     -33.317   6.090   2.411  1.00 20.00     0.021 C 
HETATM    7  C8  UNL     1     -33.339   7.474   3.187  1.00 20.00    -0.007 C 
HETATM    8  C10 UNL     1     -32.388   7.879   4.333  1.00 20.00     0.021 C 
ENDROOT
BRANCH   2   9
HETATM    9  C3  UNL     1     -32.512   9.202   1.198  1.00 20.00     0.152 C 
HETATM   10  C9  UNL     1     -31.903   9.184  -0.186  1.00 20.00     0.096 C 
HETATM   11  O11 UNL     1     -32.740  10.276   1.772  1.00 20.00    -0.293 OA
ENDBRANCH   2   9
TORSDOF 1
