REMARK  1 active torsions:
REMARK  status: ('A' for Active; 'I' for Inactive)
REMARK    1  A    between atoms: C4_4  and  C5_5 
ROOT
HETATM    1  C1  UNL     1     -35.218   5.947   4.047  1.00 20.00     0.014 C 
HETATM    2  C2  UNL     1     -34.381   7.183   3.741  1.00 20.00     0.062 C 
HETATM    3  C3  UNL     1     -34.240   4.798   4.226  1.00 20.00     0.077 C 
HETATM    4  C4  UNL     1     -33.450   6.787   2.602  1.00 20.00     0.209 C 
HETATM    5  F6  UNL     1     -34.159   6.780   1.440  1.00 20.00    -0.225 F 
HETATM    6  S9  UNL     1     -32.942   5.084   2.991  1.00 20.00    -0.121 SA
ENDROOT
BRANCH   4   7
HETATM    7  C5  UNL     1     -32.264   7.718   2.441  1.00 20.00     0.403 C 
HETATM    8  F7  UNL     1     -32.712   8.961   2.152  1.00 20.00    -0.210 F 
HETATM    9  F8  UNL     1     -31.517   7.309   1.390  1.00 20.00    -0.210 F 
ENDBRANCH   4   7
TORSDOF 1
