REMARK  3 active torsions:
REMARK  status: ('A' for Active; 'I' for Inactive)
REMARK    1  A    between atoms: C2_2  and  N7_7 
REMARK    2  A    between atoms: C4_4  and  C5_5 
REMARK    3  A    between atoms: C5_5  and  N7_7 
ROOT
HETATM    1  C1  UNL     1     -33.440   5.893   2.663  1.00 20.00     0.060 C 
HETATM    2  C4  UNL     1     -32.403   5.925   1.621  1.00 20.00     0.143 C 
HETATM    3  N6  UNL     1     -34.259   5.865   3.484  1.00 20.00    -0.197 NA
ENDROOT
BRANCH   2   4
HETATM    4  C5  UNL     1     -31.501   7.148   1.752  1.00 20.00     0.138 C 
BRANCH   4   5
HETATM    5  N7  UNL     1     -32.279   8.385   1.643  1.00 20.00    -0.366 N 
HETATM    6  C3  UNL     1     -32.604   9.045   2.910  1.00 20.00     0.151 C 
BRANCH   5   7
HETATM    7  C2  UNL     1     -32.505   8.993   0.433  1.00 20.00     0.167 C 
HETATM    8  S8  UNL     1     -32.438  10.712   0.257  1.00 20.00    -0.048 SA
HETATM    9  S9  UNL     1     -32.861   8.076  -0.989  1.00 20.00    -0.048 SA
ENDBRANCH   5   7
ENDBRANCH   4   5
ENDBRANCH   2   4
TORSDOF 3
