REMARK  1 active torsions:
REMARK  status: ('A' for Active; 'I' for Inactive)
REMARK    1  A    between atoms: C2_2  and  C3_3 
ROOT
HETATM    1  C1  UNL     1     -32.527   5.511   2.410  1.00 20.00    -0.015 C 
HETATM    2  C2  UNL     1     -33.510   6.370   2.732  1.00 20.00    -0.012 C 
HETATM    3  C4  UNL     1     -31.620   5.802   1.231  1.00 20.00     0.033 C 
HETATM    4  C5  UNL     1     -33.594   7.143   0.343  1.00 20.00     0.016 C 
HETATM    5  C6  UNL     1     -33.666   7.576   1.855  1.00 20.00     0.030 C 
HETATM    6  C7  UNL     1     -32.046   7.134   0.573  1.00 20.00    -0.002 C 
HETATM    7  C8  UNL     1     -32.297   8.346   1.575  1.00 20.00    -0.036 C 
HETATM    8  C10 UNL     1     -32.456   9.727   0.907  1.00 20.00     0.016 C 
HETATM    9  C11 UNL     1     -31.311   8.512   2.739  1.00 20.00     0.016 C 
ENDROOT
BRANCH   2  10
HETATM   10  C3  UNL     1     -34.376   6.108   3.877  1.00 20.00     0.151 C 
HETATM   11  C9  UNL     1     -34.956   7.288   4.621  1.00 20.00     0.096 C 
HETATM   12  O12 UNL     1     -34.622   4.950   4.233  1.00 20.00    -0.293 OA
ENDBRANCH   2  10
TORSDOF 1
