REMARK  0 active torsions:
REMARK  status: ('A' for Active; 'I' for Inactive)
ROOT
HETATM    1  C1  UNL     1     -35.082   7.120   4.519  1.00 20.00    -0.014 C 
HETATM    2  C2  UNL     1     -35.441   5.915   4.044  1.00 20.00    -0.004 C 
HETATM    3  C3  UNL     1     -33.030   6.274   2.179  1.00 20.00     0.203 A 
HETATM    4  C4  UNL     1     -33.622   7.417   4.315  1.00 20.00     0.126 C 
HETATM    5  C5  UNL     1     -34.044   5.130   1.974  1.00 20.00     0.126 A 
HETATM    6  C6  UNL     1     -34.258   5.189   3.503  1.00 20.00     0.042 A 
HETATM    7  C7  UNL     1     -33.834   3.977   4.309  1.00 20.00     0.038 C 
HETATM    8  N8  UNL     1     -33.224   6.256   3.534  1.00 20.00    -0.237 NA
HETATM    9  O9  UNL     1     -32.396   7.008   1.454  1.00 20.00    -0.280 OA
ENDROOT
TORSDOF 0
