REMARK  1 active torsions:
REMARK  status: ('A' for Active; 'I' for Inactive)
REMARK    1  A    between atoms: C8_8  and  C9_9 
ROOT
HETATM    1  C1  UNL     1     -32.385   9.750   0.446  1.00 20.00     0.218 C 
HETATM    2  C8  UNL     1     -31.979   8.515   0.395  1.00 20.00     0.044 C 
HETATM    3  O10 UNL     1     -32.752  10.866   0.493  1.00 20.00    -0.284 OA
ENDROOT
BRANCH   2   4
HETATM    4  C9  UNL     1     -31.545   7.704   1.581  1.00 20.00     0.057 C 
HETATM    5  C6  UNL     1     -32.152   8.233   2.855  1.00 20.00    -0.014 C 
HETATM    6  C4  UNL     1     -33.225   7.806   3.534  1.00 20.00    -0.003 C 
HETATM    7  C2  UNL     1     -34.132   6.749   3.168  1.00 20.00    -0.000 C 
HETATM    8  C3  UNL     1     -33.892   5.705   2.366  1.00 20.00    -0.000 C 
HETATM    9  C5  UNL     1     -32.669   5.386   1.676  1.00 20.00    -0.003 C 
HETATM   10  C7  UNL     1     -31.690   6.228   1.316  1.00 20.00    -0.014 C 
ENDBRANCH   2   4
TORSDOF 1
