REMARK  2 active torsions:
REMARK  status: ('A' for Active; 'I' for Inactive)
REMARK    1  A    between atoms: C4_4  and  C5_5 
REMARK    2  A    between atoms: C9_9  and  C11_11 
ROOT
HETATM    1  C1  UNL     1     -33.019  10.084  -0.751  1.00 20.00     0.012 C 
HETATM    2  C2  UNL     1     -32.134   9.516  -0.171  1.00 20.00    -0.117 C 
HETATM    3  C11 UNL     1     -31.045   8.831   0.531  1.00 20.00     0.098 C 
ENDROOT
BRANCH   3   4
HETATM    4  C9  UNL     1     -31.584   7.707   1.413  1.00 20.00     0.000 C 
HETATM    5  C6  UNL     1     -32.098   8.264   2.753  1.00 20.00     0.033 C 
HETATM    6  C3  UNL     1     -32.916   7.275   3.534  1.00 20.00    -0.016 C 
HETATM    7  C4  UNL     1     -33.393   6.146   2.991  1.00 20.00    -0.016 C 
HETATM    8  C7  UNL     1     -33.195   5.760   1.557  1.00 20.00     0.042 C 
HETATM    9  C8  UNL     1     -32.692   6.923   0.695  1.00 20.00     0.010 C 
BRANCH   7  10
HETATM   10  C5  UNL     1     -34.172   5.253   3.852  1.00 20.00     0.151 C 
HETATM   11  C10 UNL     1     -35.433   5.793   4.479  1.00 20.00     0.096 C 
HETATM   12  O12 UNL     1     -33.798   4.097   4.060  1.00 20.00    -0.293 OA
ENDBRANCH   7  10
ENDBRANCH   3   4
TORSDOF 2
