REMARK  5 active torsions:
REMARK  status: ('A' for Active; 'I' for Inactive)
REMARK    1  A    between atoms: C1_1  and  C5_5 
REMARK    2  A    between atoms: C2_2  and  C9_9 
REMARK    3  A    between atoms: C3_3  and  C6_6 
REMARK    4  A    between atoms: C9_9  and  C11_11 
REMARK    5  A    between atoms: C10_10  and  C11_11 
ROOT
HETATM    1  C4  UNL     1     -31.500   6.266   1.256  1.00 20.00     0.022 A 
HETATM    2  C5  UNL     1     -32.870   6.712   1.620  1.00 20.00     0.020 A 
HETATM    3  C6  UNL     1     -32.236   7.239   0.377  1.00 20.00     0.063 A 
ENDROOT
BRANCH   2   4
HETATM    4  C1  UNL     1     -33.014   7.605   2.808  1.00 20.00    -0.025 C 
HETATM    5  C2  UNL     1     -34.042   7.545   3.667  1.00 20.00    -0.030 C 
BRANCH   5   6
HETATM    6  C9  UNL     1     -35.178   6.571   3.542  1.00 20.00     0.027 C 
BRANCH   6   7
HETATM    7  C11 UNL     1     -34.919   5.251   4.275  1.00 20.00     0.003 C 
BRANCH   7   8
HETATM    8  C10 UNL     1     -33.668   4.523   3.777  1.00 20.00    -0.004 C 
HETATM    9  C8  UNL     1     -33.441   3.227   4.539  1.00 20.00     0.005 C 
ENDBRANCH   7   8
ENDBRANCH   6   7
ENDBRANCH   5   6
ENDBRANCH   2   4
BRANCH   3  10
HETATM   10  C3  UNL     1     -31.745   8.618   0.263  1.00 20.00     0.128 C 
HETATM   11  C7  UNL     1     -32.748   9.660  -0.154  1.00 20.00     0.091 C 
HETATM   12  O12 UNL     1     -30.573   8.907   0.498  1.00 20.00    -0.298 OA
ENDBRANCH   3  10
TORSDOF 5
