REMARK  1 active torsions:
REMARK  status: ('A' for Active; 'I' for Inactive)
REMARK    1  A    between atoms: C2_2  and  C6_6 
ROOT
HETATM    1  C3  UNL     1     -33.936   6.165   3.033  1.00 20.00     0.031 C 
HETATM    2  C4  UNL     1     -32.908   5.656   2.018  1.00 20.00     0.032 C 
HETATM    3  C5  UNL     1     -33.861   8.466   1.993  1.00 20.00     0.040 C 
HETATM    4  C6  UNL     1     -32.873   7.935   0.934  1.00 20.00     0.042 C 
HETATM    5  C7  UNL     1     -33.674   7.655   3.283  1.00 20.00     0.131 C 
HETATM    6  C8  UNL     1     -32.017   6.835   1.599  1.00 20.00     0.139 C 
HETATM    7  N10 UNL     1     -32.255   7.798   3.693  1.00 20.00    -0.192 NA
HETATM    8  N11 UNL     1     -31.419   7.393   2.841  1.00 20.00    -0.192 NA
ENDROOT
BRANCH   4   9
HETATM    9  C2  UNL     1     -32.034   9.032   0.350  1.00 20.00    -0.087 C 
HETATM   10  C1  UNL     1     -30.695   9.020   0.432  1.00 20.00     0.014 C 
HETATM   11  C9  UNL     1     -32.776  10.143  -0.331  1.00 20.00     0.043 C 
ENDBRANCH   4   9
TORSDOF 1
