REMARK  2 active torsions:
REMARK  status: ('A' for Active; 'I' for Inactive)
REMARK    1  A    between atoms: C2_2  and  C7_7 
REMARK    2  A    between atoms: C3_3  and  C6_6 
ROOT
HETATM    1  C4  UNL     1     -32.815   5.560   1.285  1.00 20.00     0.014 C 
HETATM    2  C5  UNL     1     -31.406   6.141   1.491  1.00 20.00     0.015 C 
HETATM    3  C6  UNL     1     -33.392   6.780   2.049  1.00 20.00     0.067 C 
HETATM    4  C7  UNL     1     -32.051   7.540   1.724  1.00 20.00    -0.011 C 
HETATM    5  C10 UNL     1     -31.410   8.330   2.860  1.00 20.00     0.021 C 
ENDROOT
BRANCH   4   6
HETATM    6  C2  UNL     1     -32.133   8.373   0.488  1.00 20.00    -0.084 C 
HETATM    7  C1  UNL     1     -31.237   8.261  -0.504  1.00 20.00     0.015 C 
HETATM    8  C8  UNL     1     -33.276   9.343   0.418  1.00 20.00     0.043 C 
ENDBRANCH   4   6
BRANCH   3   9
HETATM    9  C3  UNL     1     -33.773   6.560   3.522  1.00 20.00     0.128 C 
HETATM   10  C9  UNL     1     -34.354   5.218   3.877  1.00 20.00     0.091 C 
HETATM   11  O11 UNL     1     -33.609   7.437   4.369  1.00 20.00    -0.298 OA
ENDBRANCH   3   9
TORSDOF 2
