REMARK  1 active torsions:
REMARK  status: ('A' for Active; 'I' for Inactive)
REMARK    1  A    between atoms: C1_1  and  C8_8 
ROOT
HETATM    1  C2  UNL     1     -32.664   7.817   2.543  1.00 20.00     0.013 A 
HETATM    2  C3  UNL     1     -33.943   6.834   1.096  1.00 20.00     0.013 A 
HETATM    3  C4  UNL     1     -31.999   6.001   1.567  1.00 20.00     0.013 A 
HETATM    4  C5  UNL     1     -33.378   8.251   1.257  1.00 20.00     0.006 A 
HETATM    5  C6  UNL     1     -31.428   7.415   1.729  1.00 20.00     0.006 A 
HETATM    6  C7  UNL     1     -32.710   6.429   0.277  1.00 20.00     0.006 A 
HETATM    7  C8  UNL     1     -33.232   6.402   2.384  1.00 20.00     0.033 A 
HETATM    8  C9  UNL     1     -32.137   7.854   0.430  1.00 20.00    -0.031 A 
HETATM    9  C11 UNL     1     -31.527   8.663  -0.658  1.00 20.00     0.016 C 
ENDROOT
BRANCH   7  10
HETATM   10  C1  UNL     1     -33.850   5.588   3.479  1.00 20.00     0.133 C 
HETATM   11  C10 UNL     1     -35.065   6.168   4.150  1.00 20.00     0.091 C 
HETATM   12  O12 UNL     1     -33.388   4.497   3.811  1.00 20.00    -0.297 OA
ENDBRANCH   7  10
TORSDOF 1
