REMARK  0 active torsions:
REMARK  status: ('A' for Active; 'I' for Inactive)
ROOT
HETATM    1  C1  UNL     1     -33.897   6.804   3.234  1.00 20.00     0.026 C 
HETATM    2  C2  UNL     1     -32.519   7.537   1.764  1.00 20.00     0.017 C 
HETATM    3  C3  UNL     1     -34.887   6.847   4.132  1.00 20.00     0.040 C 
HETATM    4  C4  UNL     1     -33.397   5.542   2.594  1.00 20.00     0.073 C 
HETATM    5  C5  UNL     1     -32.629   6.074   1.377  1.00 20.00    -0.002 C 
HETATM    6  C6  UNL     1     -31.656   8.498   1.007  1.00 20.00     0.066 C 
HETATM    7  C7  UNL     1     -31.266   5.403   1.236  1.00 20.00     0.021 C 
HETATM    8  C8  UNL     1     -33.446   5.936   0.091  1.00 20.00     0.021 C 
HETATM    9  N9  UNL     1     -33.241   7.917   2.772  1.00 20.00    -0.263 NA
ENDROOT
TORSDOF 0
