REMARK  1 active torsions:
REMARK  status: ('A' for Active; 'I' for Inactive)
REMARK    1  A    between atoms: C6_6  and  N10_10 
ROOT
HETATM    1  C1  UNL     1     -31.938   8.046   2.507  1.00 20.00    -0.017 A 
HETATM    2  C2  UNL     1     -32.425   8.383   3.660  1.00 20.00     0.079 A 
HETATM    3  C3  UNL     1     -33.548   7.602   4.135  1.00 20.00     0.047 A 
HETATM    4  C4  UNL     1     -33.686   6.037   2.156  1.00 20.00     0.057 A 
HETATM    5  C5  UNL     1     -32.687   6.453   1.341  1.00 20.00     0.129 A 
HETATM    6  C6  UNL     1     -34.100   6.568   3.461  1.00 20.00     0.135 A 
HETATM    7  N9  UNL     1     -31.773   7.485   1.491  1.00 20.00    -0.218 NA
ENDROOT
BRANCH   6   8
HETATM    8  N10 UNL     1     -35.201   5.935   4.107  1.00 20.00    -0.049 N 
HETATM    9  C7  UNL     1     -36.438   6.086   3.274  1.00 20.00     0.276 C 
HETATM   10  C8  UNL     1     -34.863   4.506   4.407  1.00 20.00     0.276 C 
HETATM   11  H21 UNL     1     -35.374   6.407   5.006  1.00 20.00     0.285 HD
ENDBRANCH   6   8
TORSDOF 1
