REMARK  2 active torsions:
REMARK  status: ('A' for Active; 'I' for Inactive)
REMARK    1  A    between atoms: C6_6  and  C7_7 
REMARK    2  A    between atoms: C6_6  and  N8_8 
ROOT
HETATM    1  C1  UNL     1     -33.073   6.318   2.091  1.00 20.00     0.283 C 
HETATM    2  C2  UNL     1     -34.179   6.536   3.117  1.00 20.00     0.105 C 
HETATM    3  C3  UNL     1     -32.171   8.241   3.107  1.00 20.00     0.346 C 
HETATM    4  N8  UNL     1     -32.391   7.592   1.808  1.00 20.00     0.098 N 
HETATM    5  S9  UNL     1     -33.480   7.744   4.264  1.00 20.00    -0.138 SA
ENDROOT
BRANCH   4   6
HETATM    6  C6  UNL     1     -33.173   8.438   0.906  1.00 20.00     0.277 C 
BRANCH   6   7
HETATM    7  C7  UNL     1     -32.292   9.466   0.184  1.00 20.00     0.006 C 
HETATM    8  C4  UNL     1     -31.204   8.806  -0.663  1.00 20.00     0.011 C 
HETATM    9  C5  UNL     1     -33.118  10.436  -0.662  1.00 20.00     0.011 C 
ENDBRANCH   6   7
ENDBRANCH   4   6
TORSDOF 2
