REMARK  4 active torsions:
REMARK  status: ('A' for Active; 'I' for Inactive)
REMARK    1  A    between atoms: C2_2  and  C5_5 
REMARK    2  A    between atoms: C4_4  and  C8_8 
REMARK    3  A    between atoms: C7_7  and  C9_9 
REMARK    4  A    between atoms: C8_8  and  C9_9 
ROOT
HETATM    1  C1  UNL     1     -32.820  10.096  -0.760  1.00 20.00     0.012 C 
HETATM    2  C3  UNL     1     -32.067   9.594   0.028  1.00 20.00    -0.117 C 
HETATM    3  C7  UNL     1     -31.141   8.982   0.993  1.00 20.00     0.094 C 
ENDROOT
BRANCH   3   4
HETATM    4  C9  UNL     1     -31.731   7.698   1.582  1.00 20.00     0.024 C 
BRANCH   4   5
HETATM    5  C8  UNL     1     -33.008   7.944   2.388  1.00 20.00     0.095 C 
BRANCH   5   6
HETATM    6  C4  UNL     1     -33.521   6.715   3.008  1.00 20.00    -0.098 C 
HETATM    7  C2  UNL     1     -33.940   5.709   3.513  1.00 20.00    -0.029 C 
BRANCH   7   8
HETATM    8  C5  UNL     1     -34.439   4.497   4.116  1.00 20.00     0.198 C 
HETATM    9  C6  UNL     1     -33.619   3.260   3.898  1.00 20.00     0.106 C 
HETATM   10  O10 UNL     1     -35.478   4.522   4.763  1.00 20.00    -0.284 OA
ENDBRANCH   7   8
ENDBRANCH   5   6
ENDBRANCH   4   5
ENDBRANCH   3   4
TORSDOF 4
