REMARK  1 active torsions:
REMARK  status: ('A' for Active; 'I' for Inactive)
REMARK    1  A    between atoms: C2_2  and  C5_5 
ROOT
HETATM    1  C1  UNL     1     -33.390   5.582   2.458  1.00 20.00     0.016 C 
HETATM    2  C2  UNL     1     -33.724   6.631   3.225  1.00 20.00    -0.019 C 
HETATM    3  C3  UNL     1     -32.265   5.630   1.538  1.00 20.00    -0.066 C 
HETATM    4  C4  UNL     1     -32.030   4.638   0.667  1.00 20.00     0.019 C 
HETATM    5  C6  UNL     1     -33.010   7.953   3.198  1.00 20.00     0.050 C 
HETATM    6  C7  UNL     1     -31.376   6.852   1.613  1.00 20.00     0.047 C 
HETATM    7  C8  UNL     1     -32.158   8.155   1.917  1.00 20.00    -0.040 C 
HETATM    8  C9  UNL     1     -31.163   9.306   2.147  1.00 20.00     0.015 C 
HETATM    9  C10 UNL     1     -33.061   8.536   0.724  1.00 20.00     0.015 C 
ENDROOT
BRANCH   2  10
HETATM   10  C5  UNL     1     -34.872   6.477   4.123  1.00 20.00     0.265 C 
HETATM   11  O11 UNL     1     -35.521   5.441   4.190  1.00 20.00    -0.302 OA
ENDBRANCH   2  10
TORSDOF 1
