REMARK  1 active torsions:
REMARK  status: ('A' for Active; 'I' for Inactive)
REMARK    1  A    between atoms: C1_1  and  C4_4 
ROOT
HETATM    1  C2  UNL     1     -33.208   8.736   2.935  1.00 20.00     0.038 C 
HETATM    2  C3  UNL     1     -32.469   6.955   2.019  1.00 20.00     0.038 C 
HETATM    3  C4  UNL     1     -33.096   7.263   3.402  1.00 20.00     0.076 C 
HETATM    4  C5  UNL     1     -32.093   8.457   1.891  1.00 20.00     0.035 C 
HETATM    5  C6  UNL     1     -30.684   8.777   2.406  1.00 20.00     0.032 C 
HETATM    6 CL9  UNL     1     -32.338   9.189   0.271  1.00 20.00    -0.120 Cl
ENDROOT
BRANCH   3   7
HETATM    7  C1  UNL     1     -34.388   6.526   3.768  1.00 20.00     0.223 C 
HETATM    8  O7  UNL     1     -35.461   7.113   3.862  1.00 20.00    -0.279 OA
HETATM    9 CL8  UNL     1     -34.122   4.827   4.018  1.00 20.00    -0.043 Cl
ENDBRANCH   3   7
TORSDOF 1
