REMARK  1 active torsions:
REMARK  status: ('A' for Active; 'I' for Inactive)
REMARK    1  A    between atoms: C5_5  and  C8_8 
ROOT
HETATM    1  C1  UNL     1     -34.880   5.734   4.207  1.00 20.00    -0.027 C 
HETATM    2  C2  UNL     1     -34.983   7.053   4.006  1.00 20.00    -0.029 C 
HETATM    3  C3  UNL     1     -33.069   5.063   2.564  1.00 20.00    -0.020 C 
HETATM    4  C4  UNL     1     -32.994   6.136   1.750  1.00 20.00    -0.076 C 
HETATM    5  C6  UNL     1     -33.632   4.945   3.953  1.00 20.00     0.054 C 
HETATM    6  C7  UNL     1     -33.834   7.878   3.526  1.00 20.00     0.043 C 
HETATM    7  C8  UNL     1     -33.413   7.561   2.085  1.00 20.00     0.086 C 
HETATM    8  C9  UNL     1     -32.495   5.929   0.335  1.00 20.00     0.044 C 
ENDROOT
BRANCH   7   9
HETATM    9  C5  UNL     1     -32.244   8.456   1.779  1.00 20.00     0.131 C 
HETATM   10  C10 UNL     1     -32.455   9.509   0.725  1.00 20.00     0.091 C 
HETATM   11  O11 UNL     1     -31.169   8.335   2.364  1.00 20.00    -0.298 OA
ENDBRANCH   7   9
TORSDOF 1
