REMARK  5 active torsions:
REMARK  status: ('A' for Active; 'I' for Inactive)
REMARK    1  A    between atoms: C1_1  and  C5_5 
REMARK    2  A    between atoms: C2_2  and  C7_7 
REMARK    3  A    between atoms: C5_5  and  O10_10 
REMARK    4  A    between atoms: C7_7  and  C9_9 
REMARK    5  A    between atoms: C8_8  and  C9_9 
ROOT
HETATM    1  C1  UNL     1     -33.197   4.918   3.293  1.00 20.00    -0.068 C 
HETATM    2  C2  UNL     1     -32.748   5.709   2.509  1.00 20.00    -0.103 C 
ENDROOT
BRANCH   1   3
HETATM    3  C5  UNL     1     -33.744   3.956   4.249  1.00 20.00     0.121 A 
HETATM    4  C3  UNL     1     -33.381   2.522   4.102  1.00 20.00     0.055 A 
HETATM    5  C4  UNL     1     -32.825   3.332   5.237  1.00 20.00     0.055 A 
BRANCH   3   6
HETATM    6  O10 UNL     1     -35.065   4.293   4.655  1.00 20.00    -0.378 OA
HETATM    7  H24 UNL     1     -35.347   3.608   5.282  1.00 20.00     0.211 HD
ENDBRANCH   3   6
ENDBRANCH   1   3
BRANCH   2   8
HETATM    8  C7  UNL     1     -32.198   6.674   1.548  1.00 20.00     0.094 C 
BRANCH   8   9
HETATM    9  C9  UNL     1     -32.846   8.049   1.715  1.00 20.00     0.012 C 
BRANCH   9  10
HETATM   10  C8  UNL     1     -32.305   9.047   0.692  1.00 20.00    -0.004 C 
HETATM   11  C6  UNL     1     -32.977  10.405   0.829  1.00 20.00     0.005 C 
ENDBRANCH   9  10
ENDBRANCH   8   9
ENDBRANCH   2   8
TORSDOF 5
