REMARK  2 active torsions:
REMARK  status: ('A' for Active; 'I' for Inactive)
REMARK    1  A    between atoms: C1_1  and  C5_5 
REMARK    2  A    between atoms: C5_5  and  C6_6 
ROOT
HETATM    1  C2  UNL     1     -32.185   4.483   1.329  1.00 20.00     0.003 C 
HETATM    2  C3  UNL     1     -33.544   5.189   1.185  1.00 20.00     0.026 C 
HETATM    3  C4  UNL     1     -31.957   5.291   2.618  1.00 20.00     0.026 C 
HETATM    4  C5  UNL     1     -33.011   6.326   2.113  1.00 20.00     0.110 C 
ENDROOT
BRANCH   4   5
HETATM    5  C1  UNL     1     -32.395   7.500   1.347  1.00 20.00     0.249 C 
HETATM    6  O7  UNL     1     -31.921   8.490   1.894  1.00 20.00    -0.306 OA
ENDBRANCH   4   5
BRANCH   4   7
HETATM    7  C6  UNL     1     -34.014   6.829   3.188  1.00 20.00     0.401 C 
HETATM    8  F8  UNL     1     -35.002   7.519   2.602  1.00 20.00    -0.170 F 
HETATM    9  F9  UNL     1     -34.539   5.785   3.844  1.00 20.00    -0.170 F 
HETATM   10  F10 UNL     1     -33.383   7.624   4.063  1.00 20.00    -0.170 F 
ENDBRANCH   4   7
TORSDOF 2
