REMARK  3 active torsions:
REMARK  status: ('A' for Active; 'I' for Inactive)
REMARK    1  A    between atoms: C1_1  and  C3_3 
REMARK    2  A    between atoms: C2_2  and  C7_7 
REMARK    3  A    between atoms: C7_7  and  C8_8 
ROOT
HETATM    1  C1  UNL     1     -33.196   6.725   2.564  1.00 20.00    -0.029 C 
HETATM    2  C2  UNL     1     -32.510   7.353   1.804  1.00 20.00    -0.098 C 
ENDROOT
BRANCH   2   3
HETATM    3  C7  UNL     1     -31.670   8.123   0.875  1.00 20.00     0.098 C 
BRANCH   3   4
HETATM    4  C8  UNL     1     -32.429   9.238   0.134  1.00 20.00    -0.012 C 
HETATM    5  C5  UNL     1     -33.035  10.265   1.093  1.00 20.00     0.010 C 
HETATM    6  C6  UNL     1     -31.562   9.930  -0.920  1.00 20.00     0.010 C 
ENDBRANCH   3   4
ENDBRANCH   2   3
BRANCH   1   7
HETATM    7  C3  UNL     1     -34.027   5.975   3.475  1.00 20.00     0.198 C 
HETATM    8  C4  UNL     1     -35.251   6.675   3.984  1.00 20.00     0.106 C 
HETATM    9  O9  UNL     1     -33.711   4.835   3.788  1.00 20.00    -0.284 OA
ENDBRANCH   1   7
TORSDOF 3
