REMARK  1 active torsions:
REMARK  status: ('A' for Active; 'I' for Inactive)
REMARK    1  A    between atoms: C1_1  and  C7_7 
ROOT
HETATM    1  C2  UNL     1     -34.745   6.266   4.051  1.00 20.00     0.001 C 
HETATM    2  C3  UNL     1     -31.425   7.045   1.894  1.00 20.00     0.014 C 
HETATM    3  C4  UNL     1     -33.848   5.326   3.264  1.00 20.00     0.005 C 
HETATM    4  C5  UNL     1     -34.142   7.629   3.751  1.00 20.00     0.006 C 
HETATM    5  C6  UNL     1     -32.235   5.875   1.347  1.00 20.00     0.006 C 
HETATM    6  C7  UNL     1     -32.415   8.205   1.945  1.00 20.00     0.076 C 
HETATM    7  C8  UNL     1     -33.628   6.059   1.940  1.00 20.00    -0.010 C 
HETATM    8  C9  UNL     1     -33.769   7.563   2.264  1.00 20.00     0.002 C 
ENDROOT
BRANCH   6   9
HETATM    9  C1  UNL     1     -32.471   8.915   0.624  1.00 20.00     0.223 C 
HETATM   10  O10 UNL     1     -32.240   8.333  -0.432  1.00 20.00    -0.279 OA
HETATM   11 CL11 UNL     1     -32.890  10.592   0.799  1.00 20.00    -0.043 Cl
ENDBRANCH   6   9
TORSDOF 1
