REMARK  1 active torsions:
REMARK  status: ('A' for Active; 'I' for Inactive)
REMARK    1  A    between atoms: C1_1  and  C7_7 
ROOT
HETATM    1  C2  UNL     1     -33.426   6.249   2.224  1.00 20.00     0.048 C 
HETATM    2  C3  UNL     1     -35.470   6.447   3.637  1.00 20.00     0.048 C 
HETATM    3  C4  UNL     1     -33.004   7.637   2.710  1.00 20.00     0.273 C 
HETATM    4  C5  UNL     1     -34.982   7.829   4.079  1.00 20.00     0.273 C 
HETATM    5  C6  UNL     1     -33.314   6.303   4.577  1.00 20.00     0.288 C 
HETATM    6  C7  UNL     1     -34.146   5.703   3.457  1.00 20.00     0.042 C 
HETATM    7  N8  UNL     1     -33.497   7.704   4.115  1.00 20.00     0.089 N 
ENDROOT
BRANCH   6   8
HETATM    8  C1  UNL     1     -34.270   4.218   3.500  1.00 20.00     0.242 C 
HETATM    9  O9  UNL     1     -33.798   3.526   4.396  1.00 20.00    -0.306 OA
ENDBRANCH   6   8
TORSDOF 1
