REMARK  0 active torsions:
REMARK  status: ('A' for Active; 'I' for Inactive)
ROOT
HETATM    1  C1  UNL     1     -35.229   4.681   4.711  1.00 20.00     0.015 C 
HETATM    2  C2  UNL     1     -34.597   5.330   3.923  1.00 20.00    -0.076 C 
HETATM    3  C3  UNL     1     -31.868   5.930   1.415  1.00 20.00     0.004 C 
HETATM    4  C4  UNL     1     -31.937   7.442   1.239  1.00 20.00     0.003 C 
HETATM    5  C5  UNL     1     -33.224   5.361   1.826  1.00 20.00     0.055 C 
HETATM    6  C6  UNL     1     -32.232   8.132   2.568  1.00 20.00     0.042 C 
HETATM    7  C7  UNL     1     -33.841   6.105   2.982  1.00 20.00     0.154 A 
HETATM    8  C8  UNL     1     -33.379   7.520   3.330  1.00 20.00     0.102 A 
HETATM    9  C9  UNL     1     -33.660   8.123   4.674  1.00 20.00     0.050 C 
HETATM   10  O10 UNL     1     -34.555   7.286   2.554  1.00 20.00    -0.350 OA
ENDROOT
TORSDOF 0
