REMARK  0 active torsions:
REMARK  status: ('A' for Active; 'I' for Inactive)
ROOT
HETATM    1  C1  UNL     1     -32.305   8.264   2.597  1.00 20.00     0.012 C 
HETATM    2  C2  UNL     1     -32.308   7.537   1.248  1.00 20.00     0.077 C 
HETATM    3  C3  UNL     1     -33.320   7.728   3.625  1.00 20.00     0.082 C 
HETATM    4  C4  UNL     1     -33.404   5.556   2.418  1.00 20.00     0.264 A 
HETATM    5  C5  UNL     1     -32.380   6.060   1.444  1.00 20.00     0.237 A 
HETATM    6  C6  UNL     1     -34.206   6.602   3.108  1.00 20.00     0.274 C 
HETATM    7  O7  UNL     1     -33.595   5.440   1.005  1.00 20.00    -0.332 OA
HETATM    8  F8  UNL     1     -31.213   5.324   1.319  1.00 20.00    -0.209 F 
HETATM    9  F9  UNL     1     -35.139   7.115   2.263  1.00 20.00    -0.203 F 
HETATM   10  F10 UNL     1     -34.889   6.050   4.143  1.00 20.00    -0.203 F 
ENDROOT
TORSDOF 0
