REMARK  2 active torsions:
REMARK  status: ('A' for Active; 'I' for Inactive)
REMARK    1  A    between atoms: C3_3  and  C4_4 
REMARK    2  A    between atoms: C5_5  and  C7_7 
ROOT
HETATM    1  C1  UNL     1     -35.650   5.828   3.937  1.00 20.00    -0.007 C 
HETATM    2  C2  UNL     1     -34.991   4.758   4.392  1.00 20.00     0.042 C 
HETATM    3  C4  UNL     1     -34.928   6.632   2.894  1.00 20.00     0.084 C 
HETATM    4  C5  UNL     1     -33.815   5.732   2.329  1.00 20.00     0.065 C 
HETATM    5  S9  UNL     1     -33.440   4.521   3.659  1.00 20.00    -0.136 SA
ENDROOT
BRANCH   3   6
HETATM    6  C3  UNL     1     -34.448   7.873   3.587  1.00 20.00     0.240 C 
HETATM    7  O8  UNL     1     -34.136   7.909   4.772  1.00 20.00    -0.306 OA
ENDBRANCH   3   6
BRANCH   4   8
HETATM    8  C7  UNL     1     -32.563   6.441   1.838  1.00 20.00     0.012 C 
HETATM    9  C6  UNL     1     -31.526   5.475   1.358  1.00 20.00     0.006 C 
ENDBRANCH   4   8
TORSDOF 2
