REMARK  3 active torsions:
REMARK  status: ('A' for Active; 'I' for Inactive)
REMARK    1  A    between atoms: C1_1  and  C7_7 
REMARK    2  A    between atoms: C1_1  and  O10_10 
REMARK    3  A    between atoms: C6_6  and  C7_7 
ROOT
HETATM    1  C4  UNL     1     -35.711   6.316   3.778  1.00 20.00     0.021 A 
HETATM    2  C5  UNL     1     -34.752   6.619   4.889  1.00 20.00     0.021 A 
HETATM    3  C7  UNL     1     -34.301   5.766   3.721  1.00 20.00     0.051 A 
ENDROOT
BRANCH   3   4
HETATM    4  C1  UNL     1     -33.380   6.410   2.748  1.00 20.00     0.267 C 
HETATM    5  O9  UNL     1     -32.833   5.818   1.827  1.00 20.00    -0.264 OA
BRANCH   4   6
HETATM    6  O10 UNL     1     -33.252   7.733   3.049  1.00 20.00    -0.326 OA
HETATM    7  C8  UNL     1     -32.387   8.479   2.187  1.00 20.00     0.213 C 
ENDBRANCH   4   6
ENDBRANCH   3   4
BRANCH   3   8
HETATM    8  C6  UNL     1     -34.050   4.258   3.915  1.00 20.00     0.004 A 
HETATM    9  C2  UNL     1     -32.701   3.700   4.275  1.00 20.00     0.006 A 
HETATM   10  C3  UNL     1     -33.829   3.640   5.267  1.00 20.00     0.006 A 
ENDBRANCH   3   8
TORSDOF 3
