REMARK  1 active torsions:
REMARK  status: ('A' for Active; 'I' for Inactive)
REMARK    1  A    between atoms: C7_7  and  N11_11 
ROOT
HETATM    1  C1  UNL     1     -32.259   7.822   2.517  1.00 20.00     0.164 C 
HETATM    2  C2  UNL     1     -31.876   7.883   0.093  1.00 20.00     0.013 C 
HETATM    3  C3  UNL     1     -31.580   5.749   1.405  1.00 20.00     0.013 C 
HETATM    4  C4  UNL     1     -33.352   7.517  -0.146  1.00 20.00     0.008 C 
HETATM    5  C5  UNL     1     -33.052   5.405   1.127  1.00 20.00     0.008 C 
HETATM    6  C6  UNL     1     -31.376   7.269   1.407  1.00 20.00     0.058 C 
HETATM    7  C7  UNL     1     -33.745   7.550   2.324  1.00 20.00     0.295 C 
HETATM    8  C8  UNL     1     -33.895   6.695   1.041  1.00 20.00     0.026 C 
HETATM    9  O12 UNL     1     -31.803   8.430   3.481  1.00 20.00    -0.295 OA
ENDROOT
BRANCH   7  10
HETATM   10  N11 UNL     1     -34.242   6.900   3.529  1.00 20.00     0.092 N 
HETATM   11  C9  UNL     1     -35.497   6.195   3.256  1.00 20.00     0.310 C 
HETATM   12  C10 UNL     1     -34.434   7.878   4.602  1.00 20.00     0.310 C 
ENDBRANCH   7  10
TORSDOF 1
