REMARK  1 active torsions:
REMARK  status: ('A' for Active; 'I' for Inactive)
REMARK    1  A    between atoms: C9_9  and  O10_10 
ROOT
HETATM    1  C1  UNL     1     -32.825   2.626   4.982  1.00 20.00     0.012 C 
HETATM    2  C2  UNL     1     -33.432   3.476   4.389  1.00 20.00    -0.112 C 
HETATM    3  C3  UNL     1     -34.564   7.106   2.352  1.00 20.00     0.007 C 
HETATM    4  C4  UNL     1     -35.135   6.825   3.750  1.00 20.00     0.009 C 
HETATM    5  C5  UNL     1     -33.553   4.812   2.280  1.00 20.00     0.024 C 
HETATM    6  C6  UNL     1     -34.175   4.516   3.664  1.00 20.00     0.071 C 
HETATM    7  C7  UNL     1     -33.239   6.319   2.355  1.00 20.00     0.016 C 
HETATM    8  C8  UNL     1     -34.077   5.889   4.372  1.00 20.00     0.030 C 
HETATM    9  C9  UNL     1     -32.769   6.455   3.803  1.00 20.00     0.127 C 
ENDROOT
BRANCH   9  10
HETATM   10  O10 UNL     1     -32.520   7.793   4.180  1.00 20.00    -0.395 OA
HETATM   11  H22 UNL     1     -32.228   7.783   5.108  1.00 20.00     0.210 HD
ENDBRANCH   9  10
TORSDOF 1
