REMARK  2 active torsions:
REMARK  status: ('A' for Active; 'I' for Inactive)
REMARK    1  A    between atoms: C1_1  and  N9_9 
REMARK    2  A    between atoms: C4_4  and  C8_8 
ROOT
HETATM    1  C2  UNL     1     -31.432   7.130   1.318  1.00 20.00     0.031 C 
HETATM    2  C3  UNL     1     -33.352   8.205   2.261  1.00 20.00     0.130 C 
HETATM    3  C4  UNL     1     -32.422   8.271   1.052  1.00 20.00     0.005 C 
HETATM    4  C5  UNL     1     -32.298   6.046   1.969  1.00 20.00     0.083 C 
HETATM    5  C6  UNL     1     -32.887   5.082   0.943  1.00 20.00     0.032 C 
HETATM    6  N9  UNL     1     -33.345   6.804   2.649  1.00 20.00    -0.355 N 
ENDROOT
BRANCH   3   7
HETATM    7  C8  UNL     1     -31.747   9.621   0.888  1.00 20.00     0.002 C 
HETATM    8  C7  UNL     1     -32.738  10.721   0.668  1.00 20.00     0.005 C 
ENDBRANCH   3   7
BRANCH   6   9
HETATM    9  C1  UNL     1     -34.174   6.285   3.616  1.00 20.00     0.351 C 
HETATM   10  O10 UNL     1     -35.012   6.892   4.274  1.00 20.00    -0.284 OA
ENDBRANCH   6   9
TORSDOF 2
