REMARK  4 active torsions:
REMARK  status: ('A' for Active; 'I' for Inactive)
REMARK    1  A    between atoms: C5_5  and  N8_8 
REMARK    2  A    between atoms: C6_6  and  C7_7 
REMARK    3  A    between atoms: C6_6  and  N8_8 
REMARK    4  A    between atoms: C7_7  and  O9_9 
ROOT
HETATM    1  C1  UNL     1     -32.440  10.594   0.200  1.00 20.00     0.013 C 
HETATM    2  C2  UNL     1     -32.191   9.430   0.361  1.00 20.00    -0.087 C 
HETATM    3  C5  UNL     1     -31.881   8.012   0.554  1.00 20.00     0.364 C 
ENDROOT
BRANCH   3   4
HETATM    4  N8  UNL     1     -32.870   7.382   1.428  1.00 20.00     0.097 N 
HETATM    5  C3  UNL     1     -32.858   5.930   1.251  1.00 20.00     0.311 C 
BRANCH   4   6
HETATM    6  C6  UNL     1     -32.612   7.729   2.825  1.00 20.00     0.299 C 
BRANCH   6   7
HETATM    7  C7  UNL     1     -33.876   7.529   3.641  1.00 20.00     0.197 C 
BRANCH   7   8
HETATM    8  O9  UNL     1     -34.301   6.176   3.530  1.00 20.00    -0.394 OA
HETATM    9  C4  UNL     1     -35.488   5.940   4.274  1.00 20.00     0.201 C 
ENDBRANCH   7   8
ENDBRANCH   6   7
ENDBRANCH   4   6
ENDBRANCH   3   4
TORSDOF 4
