REMARK  1 active torsions:
REMARK  status: ('A' for Active; 'I' for Inactive)
REMARK    1  A    between atoms: C2_2  and  C6_6 
ROOT
HETATM    1  C1  UNL     1     -32.588   9.067   0.041  1.00 20.00     0.074 C 
HETATM    2  C3  UNL     1     -31.674   7.712   1.904  1.00 20.00     0.031 C 
HETATM    3  C4  UNL     1     -31.976   6.378   2.577  1.00 20.00     0.025 C 
HETATM    4  C5  UNL     1     -32.430   7.716   0.580  1.00 20.00     0.154 C 
HETATM    5  C6  UNL     1     -33.482   6.167   2.518  1.00 20.00     0.117 C 
HETATM    6  N8  UNL     1     -32.714  10.139  -0.386  1.00 20.00    -0.196 NA
HETATM    7  S10 UNL     1     -34.028   6.938   0.970  1.00 20.00    -0.137 SA
ENDROOT
BRANCH   5   8
HETATM    8  C2  UNL     1     -34.194   6.837   3.648  1.00 20.00     0.136 C 
HETATM    9  C7  UNL     1     -35.514   6.245   4.062  1.00 20.00     0.092 C 
HETATM   10  O9  UNL     1     -33.724   7.823   4.213  1.00 20.00    -0.297 OA
ENDBRANCH   5   8
TORSDOF 1
