REMARK  0 active torsions:
REMARK  status: ('A' for Active; 'I' for Inactive)
ROOT
HETATM    1  C1  UNL     1     -32.752   9.839   0.394  1.00 20.00     0.017 C 
HETATM    2  C2  UNL     1     -32.396   8.928   1.089  1.00 20.00    -0.057 C 
HETATM    3  C3  UNL     1     -33.563   7.938   3.702  1.00 20.00     0.182 C 
HETATM    4  C4  UNL     1     -33.851   6.366   1.792  1.00 20.00     0.182 C 
HETATM    5  C5  UNL     1     -31.959   7.812   1.941  1.00 20.00     0.341 C 
HETATM    6  C6  UNL     1     -34.119   6.564   3.293  1.00 20.00    -0.004 C 
HETATM    7  C7  UNL     1     -35.626   6.503   3.571  1.00 20.00     0.019 C 
HETATM    8  C8  UNL     1     -33.411   5.456   4.098  1.00 20.00     0.019 C 
HETATM    9  O9  UNL     1     -32.190   8.068   3.331  1.00 20.00    -0.350 OA
HETATM   10  O10 UNL     1     -32.468   6.552   1.488  1.00 20.00    -0.350 OA
ENDROOT
TORSDOF 0
