REMARK  2 active torsions:
REMARK  status: ('A' for Active; 'I' for Inactive)
REMARK    1  A    between atoms: C2_2  and  C8_8 
REMARK    2  A    between atoms: C8_8  and  N9_9 
ROOT
HETATM    1  C1  UNL     1     -32.620   9.689   0.175  1.00 20.00    -0.109 C 
HETATM    2  C2  UNL     1     -32.232   8.762   0.832  1.00 20.00    -0.077 C 
HETATM    3  C7  UNL     1     -33.091  10.818  -0.626  1.00 20.00     0.112 C 
ENDROOT
BRANCH   2   4
HETATM    4  C8  UNL     1     -31.752   7.632   1.634  1.00 20.00     0.365 C 
BRANCH   4   5
HETATM    5  N9  UNL     1     -32.866   6.798   2.080  1.00 20.00     0.103 N 
HETATM    6  C3  UNL     1     -33.529   7.394   3.248  1.00 20.00     0.299 C 
HETATM    7  C5  UNL     1     -34.680   6.500   3.703  1.00 20.00     0.198 C 
HETATM    8  O10 UNL     1     -34.200   5.191   4.014  1.00 20.00    -0.388 OA
HETATM    9  C6  UNL     1     -33.583   4.593   2.874  1.00 20.00     0.198 C 
HETATM   10  C4  UNL     1     -32.406   5.440   2.400  1.00 20.00     0.299 C 
ENDBRANCH   4   5
ENDBRANCH   2   4
TORSDOF 2
