REMARK  1 active torsions:
REMARK  status: ('A' for Active; 'I' for Inactive)
REMARK    1  A    between atoms: C1_1  and  C6_6 
ROOT
HETATM    1  C2  UNL     1     -33.784   4.512   3.948  1.00 20.00     0.001 C 
HETATM    2  C3  UNL     1     -34.815   5.600   4.189  1.00 20.00     0.001 C 
HETATM    3  C4  UNL     1     -32.614   5.280   3.349  1.00 20.00     0.018 C 
HETATM    4  C5  UNL     1     -34.695   6.522   2.977  1.00 20.00     0.018 C 
HETATM    5  C6  UNL     1     -33.272   6.313   2.420  1.00 20.00     0.032 C 
HETATM    6  C7  UNL     1     -33.368   5.755   1.023  1.00 20.00     0.025 C 
ENDROOT
BRANCH   5   7
HETATM    7  C1  UNL     1     -32.473   7.613   2.365  1.00 20.00     0.227 C 
HETATM    8  O8  UNL     1     -32.007   8.040   1.312  1.00 20.00    -0.279 OA
HETATM    9 CL9  UNL     1     -32.326   8.358   3.928  1.00 20.00    -0.043 Cl
ENDBRANCH   5   7
TORSDOF 1
