REMARK  1 active torsions:
REMARK  status: ('A' for Active; 'I' for Inactive)
REMARK    1  A    between atoms: C3_3  and  C9_9 
ROOT
HETATM    1  C1  UNL     1     -31.872   4.413   0.850  1.00 20.00     0.013 C 
HETATM    2  C2  UNL     1     -32.423   5.316   1.418  1.00 20.00    -0.099 C 
HETATM    3  C4  UNL     1     -32.352   8.953   0.704  1.00 20.00     0.000 C 
HETATM    4  C5  UNL     1     -31.358   8.237   1.612  1.00 20.00     0.002 C 
HETATM    5  C6  UNL     1     -33.352   7.978   0.094  1.00 20.00     0.002 C 
HETATM    6  C7  UNL     1     -32.066   7.426   2.698  1.00 20.00     0.030 C 
HETATM    7  C8  UNL     1     -34.077   7.165   1.168  1.00 20.00     0.030 C 
HETATM    8  C9  UNL     1     -33.114   6.450   2.133  1.00 20.00     0.083 C 
ENDROOT
BRANCH   8   9
HETATM    9  C3  UNL     1     -33.883   5.855   3.245  1.00 20.00     0.143 C 
HETATM   10  C10 UNL     1     -34.667   6.804   4.110  1.00 20.00     0.093 C 
HETATM   11  O11 UNL     1     -33.883   4.642   3.453  1.00 20.00    -0.297 OA
ENDBRANCH   8   9
TORSDOF 1
