REMARK  0 active torsions:
REMARK  status: ('A' for Active; 'I' for Inactive)
ROOT
HETATM    1  C1  UNL     1     -32.590   6.881   1.539  1.00 20.00     0.029 C 
HETATM    2  C2  UNL     1     -33.360   5.768   2.249  1.00 20.00     0.046 C 
HETATM    3  C3  UNL     1     -31.976   7.837   2.552  1.00 20.00     0.167 C 
HETATM    4  C4  UNL     1     -33.618   7.347   4.197  1.00 20.00     0.209 C 
HETATM    5  C5  UNL     1     -34.325   6.327   3.301  1.00 20.00     0.134 C 
HETATM    6  O6  UNL     1     -32.977   8.365   3.422  1.00 20.00    -0.388 OA
HETATM    7 CL7  UNL     1     -35.723   7.119   2.491  1.00 20.00    -0.099 Cl
HETATM    8 CL8  UNL     1     -34.963   4.986   4.304  1.00 20.00    -0.099 Cl
ENDROOT
TORSDOF 0
