REMARK  3 active torsions:
REMARK  status: ('A' for Active; 'I' for Inactive)
REMARK    1  A    between atoms: C3_3  and  C7_7 
REMARK    2  A    between atoms: C4_4  and  O11_11 
REMARK    3  A    between atoms: C7_7  and  C8_8 
ROOT
HETATM    1  C1  UNL     1     -33.576   7.849   3.556  1.00 20.00     0.180 C 
HETATM    2  C2  UNL     1     -32.891   6.021   1.999  1.00 20.00     0.180 C 
HETATM    3  C3  UNL     1     -33.328   6.345   3.428  1.00 20.00     0.034 C 
HETATM    4  C4  UNL     1     -32.050   8.220   1.790  1.00 20.00     0.412 C 
HETATM    5  O9  UNL     1     -32.425   8.574   3.125  1.00 20.00    -0.339 OA
HETATM    6  O10 UNL     1     -31.769   6.825   1.634  1.00 20.00    -0.339 OA
ENDROOT
BRANCH   3   7
HETATM    7  C7  UNL     1     -34.554   5.539   3.835  1.00 20.00     0.008 C 
BRANCH   7   8
HETATM    8  C8  UNL     1     -34.190   4.089   4.144  1.00 20.00    -0.004 C 
HETATM    9  C5  UNL     1     -33.166   4.000   5.264  1.00 20.00     0.005 C 
ENDBRANCH   7   8
ENDBRANCH   3   7
BRANCH   4  10
HETATM   10  O11 UNL     1     -32.968   8.709   0.812  1.00 20.00    -0.344 OA
HETATM   11  C6  UNL     1     -32.809  10.104   0.607  1.00 20.00     0.207 C 
ENDBRANCH   4  10
TORSDOF 3
