REMARK  2 active torsions:
REMARK  status: ('A' for Active; 'I' for Inactive)
REMARK    1  A    between atoms: C2_2  and  C3_3 
REMARK    2  A    between atoms: C3_3  and  C6_6 
ROOT
HETATM    1  C3  UNL     1     -33.717   7.085   3.492  1.00 20.00     0.170 C 
HETATM    2  O7  UNL     1     -33.299   7.804   4.392  1.00 20.00    -0.291 OA
ENDROOT
BRANCH   1   3
HETATM    3  C2  UNL     1     -34.811   6.088   3.707  1.00 20.00     0.047 C 
HETATM    4  C1  UNL     1     -36.105   6.398   3.554  1.00 20.00     0.035 C 
HETATM    5 BR8  UNL     1     -34.295   4.366   4.236  1.00 20.00    -0.048 Br
ENDBRANCH   1   3
BRANCH   1   6
HETATM    6  C6  UNL     1     -33.133   7.210   2.124  1.00 20.00     0.061 A 
HETATM    7  C4  UNL     1     -32.694   8.558   1.657  1.00 20.00     0.013 A 
HETATM    8  C5  UNL     1     -31.677   7.511   1.997  1.00 20.00     0.013 A 
ENDBRANCH   1   6
TORSDOF 2
