REMARK  5 active torsions:
REMARK  status: ('A' for Active; 'I' for Inactive)
REMARK    1  A    between atoms: C1_1  and  C3_3 
REMARK    2  A    between atoms: C1_1  and  O11_11 
REMARK    3  A    between atoms: C4_4  and  C7_7 
REMARK    4  A    between atoms: C7_7  and  C8_8 
REMARK    5  A    between atoms: C9_9  and  O11_11 
ROOT
HETATM    1  C2  UNL     1     -32.496   5.443   1.193  1.00 20.00     0.020 A 
HETATM    2  C3  UNL     1     -33.523   6.215   1.978  1.00 20.00     0.090 A 
HETATM    3  C4  UNL     1     -32.069   6.643   1.996  1.00 20.00    -0.000 A 
ENDROOT
BRANCH   2   4
HETATM    4  C1  UNL     1     -34.104   5.617   3.185  1.00 20.00     0.263 C 
HETATM    5  O10 UNL     1     -35.009   6.124   3.834  1.00 20.00    -0.265 OA
BRANCH   4   6
HETATM    6  O11 UNL     1     -33.479   4.435   3.454  1.00 20.00    -0.322 OA
BRANCH   6   7
HETATM    7  C9  UNL     1     -33.950   3.741   4.614  1.00 20.00     0.174 C 
HETATM    8  C6  UNL     1     -33.163   2.458   4.774  1.00 20.00     0.034 C 
ENDBRANCH   6   7
ENDBRANCH   4   6
ENDBRANCH   2   4
BRANCH   3   9
HETATM    9  C7  UNL     1     -31.650   7.896   1.307  1.00 20.00     0.005 C 
BRANCH   9  10
HETATM   10  C8  UNL     1     -32.847   8.721   0.804  1.00 20.00    -0.004 C 
HETATM   11  C5  UNL     1     -32.421  10.017   0.132  1.00 20.00     0.005 C 
ENDBRANCH   9  10
ENDBRANCH   3   9
TORSDOF 5
