REMARK  1 active torsions:
REMARK  status: ('A' for Active; 'I' for Inactive)
REMARK    1  A    between atoms: C1_1  and  C4_4 
ROOT
HETATM    1  C1  UNL     1     -33.881   4.508   4.000  1.00 20.00    -0.049 C 
HETATM    2  C2  UNL     1     -33.690   3.395   4.406  1.00 20.00     0.008 C 
HETATM    3 CL8  UNL     1     -33.411   1.768   5.000  1.00 20.00    -0.023 Cl
ENDROOT
BRANCH   1   4
HETATM    4  C4  UNL     1     -34.109   5.836   3.515  1.00 20.00     0.147 A 
HETATM    5  C3  UNL     1     -33.497   6.292   2.206  1.00 20.00     0.166 A 
HETATM    6  C5  UNL     1     -32.649   5.418   1.350  1.00 20.00     0.044 C 
HETATM    7  O7  UNL     1     -32.912   6.631   3.468  1.00 20.00    -0.356 OA
HETATM    8  C6  UNL     1     -35.291   6.572   4.061  1.00 20.00     0.063 C 
ENDBRANCH   1   4
TORSDOF 1
