REMARK  2 active torsions:
REMARK  status: ('A' for Active; 'I' for Inactive)
REMARK    1  A    between atoms: C4_4  and  O11_11 
REMARK    2  A    between atoms: C10_10  and  O11_11 
ROOT
HETATM    1  C1  UNL     1     -32.813  11.196   0.790  1.00 20.00     0.014 C 
HETATM    2  C2  UNL     1     -32.608  10.043   0.527  1.00 20.00    -0.091 C 
HETATM    3  C10 UNL     1     -32.359   8.638   0.204  1.00 20.00     0.268 C 
ENDROOT
BRANCH   3   4
HETATM    4  O11 UNL     1     -31.751   7.983   1.290  1.00 20.00    -0.344 OA
BRANCH   4   5
HETATM    5  C4  UNL     1     -32.660   7.620   2.266  1.00 20.00     0.047 C 
HETATM    6  C3  UNL     1     -32.968   8.441   3.284  1.00 20.00     0.006 C 
HETATM    7  C5  UNL     1     -33.988   8.111   4.332  1.00 20.00     0.029 C 
HETATM    8  C6  UNL     1     -34.871   6.922   3.952  1.00 20.00     0.004 C 
HETATM    9  C7  UNL     1     -34.038   5.792   3.356  1.00 20.00     0.011 C 
HETATM   10  C8  UNL     1     -33.285   6.253   2.092  1.00 20.00     0.038 C 
HETATM   11  C9  UNL     1     -32.256   5.186   1.702  1.00 20.00     0.017 C 
ENDBRANCH   4   5
ENDBRANCH   3   4
TORSDOF 2
