REMARK  1 active torsions:
REMARK  status: ('A' for Active; 'I' for Inactive)
REMARK    1  A    between atoms: C3_3  and  C6_6 
ROOT
HETATM    1  C1  UNL     1     -31.606   6.757   1.552  1.00 20.00    -0.022 C 
HETATM    2  C2  UNL     1     -32.256   7.923   1.688  1.00 20.00    -0.022 C 
HETATM    3  C4  UNL     1     -32.621   5.653   1.741  1.00 20.00     0.053 C 
HETATM    4  C5  UNL     1     -33.708   7.600   1.963  1.00 20.00     0.047 C 
HETATM    5  C6  UNL     1     -33.009   5.653   3.242  1.00 20.00     0.062 C 
HETATM    6  C7  UNL     1     -33.853   6.968   3.376  1.00 20.00     0.003 C 
HETATM    7  C8  UNL     1     -33.836   6.339   1.107  1.00 20.00     0.186 C 
HETATM    8  C9  UNL     1     -33.392   7.860   4.521  1.00 20.00     0.011 C 
HETATM    9  F11 UNL     1     -33.658   6.587  -0.209  1.00 20.00    -0.248 F 
ENDROOT
BRANCH   5  10
HETATM   10  C3  UNL     1     -33.810   4.433   3.581  1.00 20.00     0.236 C 
HETATM   11  O10 UNL     1     -34.271   4.215   4.697  1.00 20.00    -0.306 OA
ENDBRANCH   5  10
TORSDOF 1
