REMARK  1 active torsions:
REMARK  status: ('A' for Active; 'I' for Inactive)
REMARK    1  A    between atoms: C3_3  and  C6_6 
ROOT
HETATM    1  C1  UNL     1     -33.939   7.475   4.289  1.00 20.00    -0.023 C 
HETATM    2  C2  UNL     1     -33.162   7.457   3.198  1.00 20.00    -0.071 C 
HETATM    3  C4  UNL     1     -34.987   6.415   4.252  1.00 20.00     0.033 C 
HETATM    4  C5  UNL     1     -34.494   5.470   3.138  1.00 20.00     0.005 C 
HETATM    5  C6  UNL     1     -33.570   6.354   2.249  1.00 20.00     0.043 C 
HETATM    6  C7  UNL     1     -32.080   8.436   2.895  1.00 20.00     0.044 C 
HETATM    7  C9  UNL     1     -33.818   4.242   3.763  1.00 20.00     0.011 C 
HETATM    8  C10 UNL     1     -34.333   6.921   1.046  1.00 20.00     0.029 C 
ENDROOT
BRANCH   5   9
HETATM    9  C3  UNL     1     -32.344   5.624   1.762  1.00 20.00     0.136 C 
HETATM   10  C8  UNL     1     -32.569   4.490   0.799  1.00 20.00     0.092 C 
HETATM   11  O11 UNL     1     -31.215   5.942   2.132  1.00 20.00    -0.297 OA
ENDBRANCH   5   9
TORSDOF 1
