REMARK  2 active torsions:
REMARK  status: ('A' for Active; 'I' for Inactive)
REMARK    1  A    between atoms: C5_5  and  O9_9 
REMARK    2  A    between atoms: C8_8  and  O9_9 
ROOT
HETATM    1  C1  UNL     1     -34.434   7.934   3.753  1.00 20.00    -0.028 C 
HETATM    2  C2  UNL     1     -33.353   8.467   3.167  1.00 20.00     0.002 C 
HETATM    3  C3  UNL     1     -34.829   6.496   3.596  1.00 20.00     0.028 C 
HETATM    4  C4  UNL     1     -33.712   5.630   3.008  1.00 20.00     0.022 C 
HETATM    5  C5  UNL     1     -32.435   7.691   2.263  1.00 20.00     0.158 C 
HETATM    6  C6  UNL     1     -33.030   6.342   1.844  1.00 20.00     0.090 C 
HETATM    7 BR10 UNL     1     -31.600   5.188   1.153  1.00 20.00    -0.088 Br
ENDROOT
BRANCH   5   8
HETATM    8  O9  UNL     1     -32.195   8.459   1.083  1.00 20.00    -0.381 OA
BRANCH   8   9
HETATM    9  C8  UNL     1     -33.375   9.111   0.643  1.00 20.00     0.164 C 
HETATM   10  C7  UNL     1     -33.062   9.907  -0.607  1.00 20.00     0.033 C 
ENDBRANCH   8   9
ENDBRANCH   5   8
TORSDOF 2
