REMARK  0 active torsions:
REMARK  status: ('A' for Active; 'I' for Inactive)
ROOT
HETATM    1  C1  UNL     1     -32.948  10.131   0.577  1.00 20.00     0.015 C 
HETATM    2  C2  UNL     1     -32.599   9.271   1.338  1.00 20.00    -0.075 C 
HETATM    3  C3  UNL     1     -31.997   9.174   4.453  1.00 20.00     0.034 C 
HETATM    4  C4  UNL     1     -32.989   6.122   1.460  1.00 20.00     0.034 C 
HETATM    5  C5  UNL     1     -31.142   8.760   3.265  1.00 20.00     0.057 C 
HETATM    6  C6  UNL     1     -31.725   6.967   1.505  1.00 20.00     0.057 C 
HETATM    7  C7  UNL     1     -33.048   8.078   4.499  1.00 20.00     0.275 C 
HETATM    8  C8  UNL     1     -33.603   6.373   2.827  1.00 20.00     0.275 C 
HETATM    9  C9  UNL     1     -32.169   8.211   2.275  1.00 20.00     0.221 C 
HETATM   10  N10 UNL     1     -33.333   7.791   3.089  1.00 20.00     0.110 N 
ENDROOT
TORSDOF 0
