REMARK  1 active torsions:
REMARK  status: ('A' for Active; 'I' for Inactive)
REMARK    1  A    between atoms: C1_1  and  C2_2 
ROOT
HETATM    1  C2  UNL     1     -33.807   7.549   2.232  1.00 20.00     0.154 A 
HETATM    2  C3  UNL     1     -32.778   6.743   1.457  1.00 20.00     0.073 A 
HETATM    3  C4  UNL     1     -32.482   8.136   1.883  1.00 20.00     0.259 A 
HETATM    4  C5  UNL     1     -32.041   5.601   2.069  1.00 20.00     0.017 C 
HETATM    5  F7  UNL     1     -32.394   9.144   0.949  1.00 20.00    -0.205 F 
HETATM    6  F8  UNL     1     -31.544   8.398   2.856  1.00 20.00    -0.205 F 
ENDROOT
BRANCH   1   7
HETATM    7  C1  UNL     1     -34.115   7.225   3.629  1.00 20.00     0.229 C 
HETATM    8  O6  UNL     1     -33.554   7.794   4.562  1.00 20.00    -0.279 OA
HETATM    9 CL9  UNL     1     -35.324   5.985   3.762  1.00 20.00    -0.043 Cl
ENDBRANCH   1   7
TORSDOF 1
