REMARK  1 active torsions:
REMARK  status: ('A' for Active; 'I' for Inactive)
REMARK    1  A    between atoms: C1_1  and  C6_6 
ROOT
HETATM    1  C1  UNL     1     -32.213   8.710   1.258  1.00 20.00    -0.100 C 
HETATM    2  C2  UNL     1     -32.546   9.441   0.366  1.00 20.00    -0.111 C 
HETATM    3  C7  UNL     1     -32.952  10.331  -0.721  1.00 20.00     0.112 C 
ENDROOT
BRANCH   1   4
HETATM    4  C6  UNL     1     -31.804   7.813   2.354  1.00 20.00     0.090 C 
HETATM    5  C4  UNL     1     -32.744   7.923   3.539  1.00 20.00     0.072 C 
HETATM    6  C3  UNL     1     -33.719   6.839   3.190  1.00 20.00     0.004 C 
HETATM    7  C8  UNL     1     -35.055   6.777   3.855  1.00 20.00     0.065 C 
HETATM    8  N9  UNL     1     -33.332   5.956   2.322  1.00 20.00    -0.297 NA
HETATM    9  C5  UNL     1     -31.952   6.348   1.954  1.00 20.00     0.166 C 
ENDBRANCH   1   4
TORSDOF 1
