REMARK  0 active torsions:
REMARK  status: ('A' for Active; 'I' for Inactive)
ROOT
HETATM    1  C1  UNL     1     -33.649   6.212   2.550  1.00 20.00     0.053 A 
HETATM    2  C2  UNL     1     -33.476   7.455   3.031  1.00 20.00    -0.070 A 
HETATM    3  C3  UNL     1     -32.668   6.046   1.457  1.00 20.00     0.155 A 
HETATM    4  C4  UNL     1     -31.844   7.279   1.337  1.00 20.00     0.082 A 
HETATM    5  C5  UNL     1     -32.363   8.237   2.415  1.00 20.00    -0.002 A 
HETATM    6  C6  UNL     1     -32.418   8.625   0.932  1.00 20.00    -0.024 A 
HETATM    7  C7  UNL     1     -34.330   8.070   4.089  1.00 20.00     0.044 C 
HETATM    8  C8  UNL     1     -31.381   8.884   3.354  1.00 20.00     0.021 C 
HETATM    9  C9  UNL     1     -31.442   9.652   0.399  1.00 20.00     0.016 C 
HETATM   10  C10 UNL     1     -33.755   8.703   0.227  1.00 20.00     0.016 C 
HETATM   11  O11 UNL     1     -32.539   5.061   0.752  1.00 20.00    -0.293 OA
ENDROOT
TORSDOF 0
