REMARK  1 active torsions:
REMARK  status: ('A' for Active; 'I' for Inactive)
REMARK    1  A    between atoms: C1_1  and  C4_4 
ROOT
HETATM    1  C2  UNL     1     -35.032   6.890   3.528  1.00 20.00     0.041 A 
HETATM    2  C3  UNL     1     -34.028   6.080   4.290  1.00 20.00     0.100 A 
HETATM    3  C4  UNL     1     -33.552   7.169   3.352  1.00 20.00     0.050 A 
HETATM    4  C5  UNL     1     -33.010   8.425   3.987  1.00 20.00     0.026 C 
HETATM    5 CL8  UNL     1     -33.832   4.388   3.911  1.00 20.00    -0.124 Cl
ENDROOT
BRANCH   3   6
HETATM    6  C1  UNL     1     -32.951   6.781   2.054  1.00 20.00     0.228 C 
HETATM    7  O6  UNL     1     -32.960   5.618   1.662  1.00 20.00    -0.279 OA
HETATM    8 CL7  UNL     1     -32.271   8.142   1.215  1.00 20.00    -0.043 Cl
ENDBRANCH   3   6
TORSDOF 1
