REMARK  2 active torsions:
REMARK  status: ('A' for Active; 'I' for Inactive)
REMARK    1  A    between atoms: C5_5  and  C7_7 
REMARK    2  A    between atoms: C7_7  and  O8_8 
ROOT
HETATM    1  C1  UNL     1     -34.161   7.358   3.642  1.00 20.00     0.013 C 
HETATM    2  C2  UNL     1     -33.233   5.927   1.773  1.00 20.00     0.013 C 
HETATM    3  C3  UNL     1     -32.967   8.300   3.514  1.00 20.00     0.079 C 
HETATM    4  C4  UNL     1     -32.039   6.869   1.645  1.00 20.00     0.079 C 
HETATM    5  C5  UNL     1     -33.807   5.931   3.197  1.00 20.00     0.009 C 
HETATM    6  C6  UNL     1     -32.385   8.273   2.111  1.00 20.00     0.243 C 
HETATM    7  F9  UNL     1     -33.276   8.825   1.247  1.00 20.00    -0.206 F 
HETATM    8  F10 UNL     1     -31.274   9.051   2.068  1.00 20.00    -0.206 F 
ENDROOT
BRANCH   5   9
HETATM    9  C7  UNL     1     -35.029   5.019   3.288  1.00 20.00     0.168 C 
BRANCH   9  10
HETATM   10  O8  UNL     1     -35.466   4.987   4.634  1.00 20.00    -0.400 OA
HETATM   11  H22 UNL     1     -36.243   4.403   4.669  1.00 20.00     0.209 HD
ENDBRANCH   9  10
ENDBRANCH   5   9
TORSDOF 2
