REMARK  1 active torsions:
REMARK  status: ('A' for Active; 'I' for Inactive)
REMARK    1  A    between atoms: C3_3  and  C7_7 
ROOT
HETATM    1  C1  UNL     1     -32.943   5.550   1.741  1.00 20.00     0.346 C 
HETATM    2  C2  UNL     1     -32.740   7.429   3.163  1.00 20.00     0.233 C 
HETATM    3  C3  UNL     1     -32.228   8.092   1.864  1.00 20.00     0.081 C 
HETATM    4  C4  UNL     1     -33.399   8.437   4.107  1.00 20.00     0.044 C 
HETATM    5  C6  UNL     1     -34.122   5.510   3.842  1.00 20.00     0.311 C 
HETATM    6  N8  UNL     1     -33.657   6.349   2.742  1.00 20.00     0.098 N 
HETATM    7  S9  UNL     1     -31.891   6.669   0.777  1.00 20.00    -0.132 SA
ENDROOT
BRANCH   3   8
HETATM    8  C7  UNL     1     -33.218   9.019   1.162  1.00 20.00     0.013 C 
HETATM    9  C5  UNL     1     -32.686   9.505  -0.146  1.00 20.00     0.006 C 
ENDBRANCH   3   8
TORSDOF 1
