REMARK  1 active torsions:
REMARK  status: ('A' for Active; 'I' for Inactive)
REMARK    1  A    between atoms: C1_1  and  C4_4 
ROOT
HETATM    1  C2  UNL     1     -31.293   7.667   1.968  1.00 20.00     0.225 A 
HETATM    2  C3  UNL     1     -32.460   8.070   1.136  1.00 20.00     0.225 A 
HETATM    3  C4  UNL     1     -32.669   7.144   2.313  1.00 20.00     0.099 A 
HETATM    4  C5  UNL     1     -32.944   5.695   1.998  1.00 20.00     0.031 C 
HETATM    5  F7  UNL     1     -30.732   8.629   2.791  1.00 20.00    -0.245 F 
HETATM    6  F8  UNL     1     -32.901   9.377   1.245  1.00 20.00    -0.245 F 
ENDROOT
BRANCH   3   7
HETATM    7  C1  UNL     1     -33.330   7.708   3.514  1.00 20.00     0.233 C 
HETATM    8  O6  UNL     1     -32.789   8.566   4.205  1.00 20.00    -0.279 OA
HETATM    9 CL9  UNL     1     -34.900   7.014   3.784  1.00 20.00    -0.043 Cl
ENDBRANCH   3   7
TORSDOF 1
