REMARK  0 active torsions:
REMARK  status: ('A' for Active; 'I' for Inactive)
ROOT
HETATM    1  C1  UNL     1     -31.642   7.838   3.728  1.00 20.00     0.037 C 
HETATM    2  C2  UNL     1     -33.091   8.004   4.225  1.00 20.00     0.019 C 
HETATM    3  C3  UNL     1     -31.604   6.227   1.690  1.00 20.00     0.051 C 
HETATM    4  C4  UNL     1     -33.981   6.557   0.936  1.00 20.00     0.052 C 
HETATM    5  C5  UNL     1     -31.545   7.702   2.191  1.00 20.00     0.224 C 
HETATM    6  C6  UNL     1     -33.921   7.827   1.798  1.00 20.00     0.237 C 
HETATM    7  C7  UNL     1     -34.099   7.350   3.279  1.00 20.00     0.081 C 
HETATM    8  C8  UNL     1     -33.014   5.605   1.625  1.00 20.00     0.052 C 
HETATM    9  C9  UNL     1     -32.357   9.001   0.287  1.00 20.00     0.310 C 
HETATM   10  N10 UNL     1     -32.627   8.526   1.637  1.00 20.00     0.094 N 
HETATM   11  S11 UNL     1     -33.771   5.548   3.268  1.00 20.00    -0.157 SA
ENDROOT
TORSDOF 0
