REMARK  1 active torsions:
REMARK  status: ('A' for Active; 'I' for Inactive)
REMARK    1  A    between atoms: C1_1  and  C2_2 
ROOT
HETATM    1  C2  UNL     1     -33.516   4.844   3.241  1.00 20.00     0.084 A 
HETATM    2  C3  UNL     1     -34.414   5.165   2.071  1.00 20.00     0.018 A 
HETATM    3  C4  UNL     1     -33.994   6.271   3.017  1.00 20.00     0.048 A 
HETATM    4  C6  UNL     1     -33.894   5.047   0.678  1.00 20.00     0.012 C 
HETATM    5  C7  UNL     1     -35.039   6.876   3.911  1.00 20.00     0.034 C 
HETATM    6 CL9  UNL     1     -32.753   7.435   2.493  1.00 20.00    -0.118 Cl
ENDROOT
BRANCH   1   7
HETATM    7  C1  UNL     1     -34.045   4.041   4.351  1.00 20.00     0.129 C 
HETATM    8  C5  UNL     1     -33.095   3.067   4.995  1.00 20.00     0.091 C 
HETATM    9  O8  UNL     1     -35.207   4.160   4.737  1.00 20.00    -0.298 OA
ENDBRANCH   1   7
TORSDOF 1
