REMARK  0 active torsions:
REMARK  status: ('A' for Active; 'I' for Inactive)
ROOT
HETATM    1  C1  UNL     1     -35.039   6.620   4.348  1.00 20.00     0.011 C 
HETATM    2  C2  UNL     1     -32.902   8.070   4.698  1.00 20.00     0.011 C 
HETATM    3  C3  UNL     1     -34.792   5.583   3.522  1.00 20.00     0.007 C 
HETATM    4  C4  UNL     1     -31.878   8.113   3.821  1.00 20.00     0.007 C 
HETATM    5  C5  UNL     1     -32.946   5.691   1.437  1.00 20.00     0.042 C 
HETATM    6  C6  UNL     1     -31.817   6.768   1.507  1.00 20.00     0.042 C 
HETATM    7  C7  UNL     1     -34.199   7.823   3.979  1.00 20.00     0.270 C 
HETATM    8  C8  UNL     1     -33.567   5.940   2.779  1.00 20.00     0.247 C 
HETATM    9  C9  UNL     1     -32.368   7.904   2.409  1.00 20.00     0.247 C 
HETATM   10  N10 UNL     1     -33.737   7.422   2.632  1.00 20.00     0.116 N 
ENDROOT
TORSDOF 0
