REMARK  0 active torsions:
REMARK  status: ('A' for Active; 'I' for Inactive)
ROOT
HETATM    1  C1  UNL     1     -32.655   8.207   3.459  1.00 20.00     0.185 C 
HETATM    2  C2  UNL     1     -32.624   7.572   2.072  1.00 20.00     0.087 C 
HETATM    3  C3  UNL     1     -33.269   6.241   2.367  1.00 20.00     0.340 C 
HETATM    4  C4  UNL     1     -34.368   6.652   3.303  1.00 20.00     0.420 C 
HETATM    5  C5  UNL     1     -31.236   7.481   1.467  1.00 20.00     0.019 C 
HETATM    6  O6  UNL     1     -33.836   7.699   4.119  1.00 20.00    -0.321 OA
HETATM    7  F7  UNL     1     -33.717   5.605   1.276  1.00 20.00    -0.196 F 
HETATM    8  F8  UNL     1     -32.403   5.423   3.010  1.00 20.00    -0.196 F 
HETATM    9  F9  UNL     1     -35.421   7.162   2.623  1.00 20.00    -0.169 F 
HETATM   10  F10 UNL     1     -34.812   5.635   4.065  1.00 20.00    -0.169 F 
ENDROOT
TORSDOF 0
