REMARK  1 active torsions:
REMARK  status: ('A' for Active; 'I' for Inactive)
REMARK    1  A    between atoms: C1_1  and  C4_4 
ROOT
HETATM    1  C2  UNL     1     -32.271   5.226   2.247  1.00 20.00     0.016 C 
HETATM    2  C3  UNL     1     -31.529   6.068   1.192  1.00 20.00     0.022 C 
HETATM    3  C4  UNL     1     -33.327   6.361   2.312  1.00 20.00     0.090 C 
HETATM    4  C5  UNL     1     -32.191   7.311   1.828  1.00 20.00     0.094 C 
HETATM    5 CL8  UNL     1     -32.614   8.686   0.771  1.00 20.00    -0.124 Cl
ENDROOT
BRANCH   3   6
HETATM    6  C1  UNL     1     -33.970   6.658   3.669  1.00 20.00     0.224 C 
HETATM    7  O6  UNL     1     -33.747   7.703   4.275  1.00 20.00    -0.279 OA
HETATM    8 CL7  UNL     1     -35.008   5.368   4.198  1.00 20.00    -0.043 Cl
ENDBRANCH   3   6
TORSDOF 1
