REMARK  1 active torsions:
REMARK  status: ('A' for Active; 'I' for Inactive)
REMARK    1  A    between atoms: C4_4  and  C10_10 
ROOT
HETATM    1  C1  UNL     1     -31.206   6.701   1.550  1.00 20.00     0.174 C 
HETATM    2  C2  UNL     1     -31.753   8.083   1.623  1.00 20.00     0.025 A 
HETATM    3  C3  UNL     1     -33.210   7.953   1.864  1.00 20.00     0.030 A 
HETATM    4  C4  UNL     1     -33.509   6.488   1.923  1.00 20.00     0.130 C 
HETATM    5  C5  UNL     1     -32.724   8.665   0.613  1.00 20.00    -0.035 A 
HETATM    6  C6  UNL     1     -32.860  10.168   0.584  1.00 20.00     0.016 C 
HETATM    7  C7  UNL     1     -32.890   8.028  -0.742  1.00 20.00     0.016 C 
HETATM    8  O11 UNL     1     -32.325   5.798   1.476  1.00 20.00    -0.385 OA
ENDROOT
BRANCH   4   9
HETATM    9  C10 UNL     1     -33.835   6.020   3.334  1.00 20.00     0.007 C 
HETATM   10  C8  UNL     1     -35.272   6.385   3.708  1.00 20.00     0.012 C 
HETATM   11  C9  UNL     1     -33.617   4.513   3.468  1.00 20.00     0.012 C 
ENDBRANCH   4   9
TORSDOF 1
