REMARK  3 active torsions:
REMARK  status: ('A' for Active; 'I' for Inactive)
REMARK    1  A    between atoms: C1_1  and  C4_4 
REMARK    2  A    between atoms: C3_3  and  C7_7 
REMARK    3  A    between atoms: C7_7  and  O9_9 
ROOT
HETATM    1  C1  UNL     1     -33.943   5.057   3.836  1.00 20.00    -0.066 C 
HETATM    2  C2  UNL     1     -33.503   4.039   4.296  1.00 20.00    -0.108 C 
HETATM    3  C5  UNL     1     -32.967   2.799   4.855  1.00 20.00     0.112 C 
ENDROOT
BRANCH   1   4
HETATM    4  C4  UNL     1     -34.467   6.272   3.287  1.00 20.00     0.148 A 
HETATM    5  C3  UNL     1     -33.750   6.975   2.152  1.00 20.00     0.194 A 
HETATM    6  O8  UNL     1     -33.611   7.405   3.511  1.00 20.00    -0.354 OA
HETATM    7  C6  UNL     1     -35.914   6.564   3.526  1.00 20.00     0.063 C 
BRANCH   5   8
HETATM    8  C7  UNL     1     -32.495   6.466   1.536  1.00 20.00     0.200 C 
BRANCH   8   9
HETATM    9  O9  UNL     1     -31.829   7.522   0.842  1.00 20.00    -0.398 OA
HETATM   10  H19 UNL     1     -31.025   7.135   0.464  1.00 20.00     0.209 HD
ENDBRANCH   8   9
ENDBRANCH   5   8
ENDBRANCH   1   4
TORSDOF 3
