REMARK  0 active torsions:
REMARK  status: ('A' for Active; 'I' for Inactive)
ROOT
HETATM    1  C1  UNL     1     -32.682   9.358   0.073  1.00 20.00     0.015 C 
HETATM    2  C2  UNL     1     -32.398   8.726   1.053  1.00 20.00    -0.073 C 
HETATM    3  C3  UNL     1     -31.380   6.627   1.864  1.00 20.00     0.225 C 
HETATM    4  C4  UNL     1     -33.621   6.261   2.173  1.00 20.00     0.442 C 
HETATM    5  C5  UNL     1     -32.047   7.944   2.265  1.00 20.00     0.240 C 
HETATM    6  C6  UNL     1     -31.103   8.808   3.114  1.00 20.00     0.066 C 
HETATM    7  C7  UNL     1     -33.167   7.199   4.343  1.00 20.00     0.315 C 
HETATM    8  N8  UNL     1     -33.294   7.488   2.915  1.00 20.00     0.130 N 
HETATM    9  O9  UNL     1     -32.445   5.716   1.564  1.00 20.00    -0.359 OA
ENDROOT
TORSDOF 0
