REMARK  3 active torsions:
REMARK  status: ('A' for Active; 'I' for Inactive)
REMARK    1  A    between atoms: C1_1  and  C5_5 
REMARK    2  A    between atoms: C6_6  and  C8_8 
REMARK    3  A    between atoms: C8_8  and  C9_9 
ROOT
HETATM    1  C2  UNL     1     -33.862   6.978   0.962  1.00 20.00     0.030 C 
HETATM    2  C3  UNL     1     -31.996   6.150   1.557  1.00 20.00     0.030 C 
HETATM    3  C4  UNL     1     -32.580   8.070   2.260  1.00 20.00     0.030 C 
HETATM    4  C5  UNL     1     -33.228   6.666   2.340  1.00 20.00     0.050 C 
HETATM    5  C6  UNL     1     -32.372   7.490   0.802  1.00 20.00    -0.037 C 
ENDROOT
BRANCH   4   6
HETATM    6  C1  UNL     1     -33.860   6.057   3.481  1.00 20.00     0.181 C 
HETATM    7  O10 UNL     1     -34.408   6.860   4.286  1.00 20.00    -0.647 OA
HETATM    8  O11 UNL     1     -33.778   4.798   3.523  1.00 20.00    -0.647 OA
ENDBRANCH   4   6
BRANCH   5   9
HETATM    9  C8  UNL     1     -31.721   8.118  -0.368  1.00 20.00     0.009 C 
BRANCH   9  10
HETATM   10  C9  UNL     1     -32.424   9.413  -0.824  1.00 20.00    -0.004 C 
HETATM   11  C7  UNL     1     -32.489  10.469   0.268  1.00 20.00     0.005 C 
ENDBRANCH   9  10
ENDBRANCH   5   9
TORSDOF 3
