REMARK  1 active torsions:
REMARK  status: ('A' for Active; 'I' for Inactive)
REMARK    1  A    between atoms: C1_1  and  C5_5 
ROOT
HETATM    1  C2  UNL     1     -34.296   4.783   4.050  1.00 20.00     0.011 A 
HETATM    2  C3  UNL     1     -35.618   5.556   4.013  1.00 20.00     0.011 A 
HETATM    3  C4  UNL     1     -33.654   7.415   4.059  1.00 20.00     0.023 A 
HETATM    4  C5  UNL     1     -33.850   7.028   2.583  1.00 20.00     0.064 A 
HETATM    5  C6  UNL     1     -34.349   6.192   3.672  1.00 20.00    -0.029 A 
ENDROOT
BRANCH   4   6
HETATM    6  C1  UNL     1     -32.679   6.608   1.807  1.00 20.00     0.128 C 
HETATM    7  C7  UNL     1     -31.504   7.548   1.793  1.00 20.00     0.091 C 
HETATM    8  O8  UNL     1     -32.658   5.539   1.198  1.00 20.00    -0.298 OA
ENDBRANCH   4   6
TORSDOF 1
