REMARK  3 active torsions:
REMARK  status: ('A' for Active; 'I' for Inactive)
REMARK    1  A    between atoms: C7_7  and  C8_8 
REMARK    2  A    between atoms: C8_8  and  C9_9 
REMARK    3  A    between atoms: C9_9  and  N10_10 
ROOT
HETATM    1  C1  UNL     1     -32.832   9.626  -0.392  1.00 20.00     0.012 C 
HETATM    2  C3  UNL     1     -32.140   9.045   0.399  1.00 20.00    -0.117 C 
HETATM    3  C7  UNL     1     -31.289   8.333   1.362  1.00 20.00     0.096 C 
ENDROOT
BRANCH   3   4
HETATM    4  C8  UNL     1     -31.986   8.124   2.714  1.00 20.00     0.061 C 
BRANCH   4   5
HETATM    5  C9  UNL     1     -33.255   7.253   2.652  1.00 20.00     0.300 C 
HETATM    6  C4  UNL     1     -33.103   6.141   1.698  1.00 20.00    -0.081 C 
HETATM    7  C2  UNL     1     -32.985   5.236   0.917  1.00 20.00     0.014 C 
BRANCH   5   8
HETATM    8  N10 UNL     1     -33.525   6.713   3.987  1.00 20.00     0.095 N 
HETATM    9  C5  UNL     1     -34.753   5.920   3.977  1.00 20.00     0.310 C 
HETATM   10  C6  UNL     1     -33.621   7.796   4.964  1.00 20.00     0.310 C 
ENDBRANCH   5   8
ENDBRANCH   4   5
ENDBRANCH   3   4
TORSDOF 3
