REMARK  2 active torsions:
REMARK  status: ('A' for Active; 'I' for Inactive)
REMARK    1  A    between atoms: C3_3  and  C5_5 
REMARK    2  A    between atoms: C3_3  and  O11_11 
ROOT
HETATM    1  C1  UNL     1     -31.549   4.705   1.098  1.00 20.00     0.013 C 
HETATM    2  C2  UNL     1     -32.245   5.549   1.593  1.00 20.00    -0.096 C 
HETATM    3  C4  UNL     1     -34.576   6.421   1.985  1.00 20.00     0.044 A 
HETATM    4  C5  UNL     1     -33.080   6.562   2.187  1.00 20.00     0.118 A 
HETATM    5  C6  UNL     1     -33.998   6.178   3.357  1.00 20.00    -0.018 A 
HETATM    6  C7  UNL     1     -34.293   7.200   4.430  1.00 20.00     0.017 C 
HETATM    7  C8  UNL     1     -34.000   4.759   3.876  1.00 20.00     0.017 C 
ENDROOT
BRANCH   4   8
HETATM    8  C3  UNL     1     -32.513   7.926   2.142  1.00 20.00     0.280 C 
HETATM    9  O10 UNL     1     -32.273   8.602   3.133  1.00 20.00    -0.263 OA
BRANCH   8  10
HETATM   10  O11 UNL     1     -32.309   8.292   0.844  1.00 20.00    -0.325 OA
HETATM   11  C9  UNL     1     -31.760   9.600   0.653  1.00 20.00     0.213 C 
ENDBRANCH   8  10
ENDBRANCH   4   8
TORSDOF 2
