REMARK  1 active torsions:
REMARK  status: ('A' for Active; 'I' for Inactive)
REMARK    1  A    between atoms: C6_6  and  N7_7 
ROOT
HETATM    1  C1  UNL     1     -32.741   8.349   3.215  1.00 20.00     0.284 C 
HETATM    2  C2  UNL     1     -33.550   7.495   4.181  1.00 20.00     0.106 C 
HETATM    3  C3  UNL     1     -33.322   6.628   1.696  1.00 20.00     0.280 C 
HETATM    4  C4  UNL     1     -32.846   5.277   1.177  1.00 20.00     0.055 C 
HETATM    5  N7  UNL     1     -32.201   7.440   2.194  1.00 20.00     0.102 N 
HETATM    6  S8  UNL     1     -34.464   6.372   3.102  1.00 20.00    -0.132 SA
ENDROOT
BRANCH   5   7
HETATM    7  C6  UNL     1     -31.530   8.181   1.131  1.00 20.00     0.269 C 
HETATM    8  C5  UNL     1     -32.470   9.120   0.453  1.00 20.00     0.037 C 
ENDBRANCH   5   7
TORSDOF 1
