REMARK  1 active torsions:
REMARK  status: ('A' for Active; 'I' for Inactive)
REMARK    1  A    between atoms: C1_1  and  C7_7 
ROOT
HETATM    1  C2  UNL     1     -32.961   3.114   4.710  1.00 20.00     0.001 C 
HETATM    2  C3  UNL     1     -33.844   6.838   3.458  1.00 20.00     0.014 C 
HETATM    3  C4  UNL     1     -34.045   4.034   5.247  1.00 20.00     0.005 C 
HETATM    4  C5  UNL     1     -32.387   3.922   3.558  1.00 20.00     0.006 C 
HETATM    5  C6  UNL     1     -35.019   6.120   4.111  1.00 20.00     0.006 C 
HETATM    6  C7  UNL     1     -33.485   5.923   2.293  1.00 20.00     0.076 C 
HETATM    7  C8  UNL     1     -34.686   4.632   3.991  1.00 20.00    -0.010 C 
HETATM    8  C9  UNL     1     -33.624   4.512   2.872  1.00 20.00     0.002 C 
ENDROOT
BRANCH   6   9
HETATM    9  C1  UNL     1     -32.135   6.216   1.720  1.00 20.00     0.223 C 
HETATM   10  O10 UNL     1     -31.442   5.335   1.219  1.00 20.00    -0.279 OA
HETATM   11 CL11 UNL     1     -31.716   7.896   1.860  1.00 20.00    -0.043 Cl
ENDBRANCH   6   9
TORSDOF 1
