REMARK  0 active torsions:
REMARK  status: ('A' for Active; 'I' for Inactive)
ROOT
HETATM    1  C1  UNL     1     -33.718   7.201   4.998  1.00 20.00     0.012 A 
HETATM    2  C2  UNL     1     -32.182   6.222   1.590  1.00 20.00     0.006 A 
HETATM    3  C3  UNL     1     -34.836   5.503   3.711  1.00 20.00     0.101 C 
HETATM    4  C4  UNL     1     -34.859   6.806   4.427  1.00 20.00     0.016 A 
HETATM    5  C5  UNL     1     -33.392   6.297   2.170  1.00 20.00     0.035 A 
HETATM    6  C6  UNL     1     -32.073   8.634   0.627  1.00 20.00     0.015 A 
HETATM    7  C7  UNL     1     -34.183   7.983   3.893  1.00 20.00     0.017 A 
HETATM    8  C8  UNL     1     -31.505   7.525   1.462  1.00 20.00     0.015 A 
HETATM    9  C9  UNL     1     -33.731   7.765   2.472  1.00 20.00     0.048 A 
HETATM   10  C10 UNL     1     -32.475   8.525   2.075  1.00 20.00     0.004 A 
HETATM   11  N11 UNL     1     -34.162   5.256   2.625  1.00 20.00    -0.269 NA
ENDROOT
TORSDOF 0
