REMARK  3 active torsions:
REMARK  status: ('A' for Active; 'I' for Inactive)
REMARK    1  A    between atoms: C1_1  and  C2_2 
REMARK    2  A    between atoms: C4_4  and  C8_8 
REMARK    3  A    between atoms: C8_8  and  N9_9 
ROOT
HETATM    1  C1  UNL     1     -34.007   6.591   3.160  1.00 20.00    -0.015 C 
HETATM    2  C3  UNL     1     -34.822   6.011   3.824  1.00 20.00    -0.097 C 
HETATM    3  C5  UNL     1     -35.815   5.305   4.632  1.00 20.00     0.113 C 
ENDROOT
BRANCH   1   4
HETATM    4  C2  UNL     1     -33.076   7.253   2.400  1.00 20.00    -0.013 C 
HETATM    5  C4  UNL     1     -32.261   7.833   1.735  1.00 20.00    -0.062 C 
BRANCH   5   6
HETATM    6  C8  UNL     1     -31.262   8.537   0.927  1.00 20.00     0.365 C 
BRANCH   6   7
HETATM    7  N9  UNL     1     -31.896   9.511   0.047  1.00 20.00     0.090 N 
HETATM    8  C6  UNL     1     -32.635  10.506   0.827  1.00 20.00     0.310 C 
HETATM    9  C7  UNL     1     -32.791   8.844  -0.901  1.00 20.00     0.310 C 
ENDBRANCH   6   7
ENDBRANCH   5   6
ENDBRANCH   1   4
TORSDOF 3
