REMARK  2 active torsions:
REMARK  status: ('A' for Active; 'I' for Inactive)
REMARK    1  A    between atoms: C1_1  and  C6_6 
REMARK    2  A    between atoms: C7_7  and  C8_8 
ROOT
HETATM    1  C2  UNL     1     -33.005   5.621   1.997  1.00 20.00     0.014 C 
HETATM    2  C3  UNL     1     -33.634   7.462   3.606  1.00 20.00     0.014 C 
HETATM    3  C4  UNL     1     -31.978   6.542   1.341  1.00 20.00     0.008 C 
HETATM    4  C5  UNL     1     -32.609   8.387   2.951  1.00 20.00     0.008 C 
HETATM    5  C6  UNL     1     -33.232   6.000   3.456  1.00 20.00     0.072 C 
HETATM    6  C7  UNL     1     -32.373   8.019   1.480  1.00 20.00     0.014 C 
ENDROOT
BRANCH   5   7
HETATM    7  C1  UNL     1     -34.376   5.152   3.978  1.00 20.00     0.223 C 
HETATM    8  O9  UNL     1     -35.406   5.657   4.416  1.00 20.00    -0.279 OA
HETATM    9 CL11 UNL     1     -34.034   3.452   3.871  1.00 20.00    -0.043 Cl
ENDBRANCH   5   7
BRANCH   6  10
HETATM   10  C8  UNL     1     -31.306   8.923   0.863  1.00 20.00     0.226 C 
HETATM   11  F10 UNL     1     -31.877  10.119   0.586  1.00 20.00    -0.255 F 
ENDBRANCH   6  10
TORSDOF 2
