REMARK  1 active torsions:
REMARK  status: ('A' for Active; 'I' for Inactive)
REMARK    1  A    between atoms: C1_1  and  C5_5 
ROOT
HETATM    1  C1  UNL     1     -32.238   8.952   0.770  1.00 20.00    -0.068 C 
HETATM    2  C2  UNL     1     -32.369   9.967   0.142  1.00 20.00    -0.108 C 
HETATM    3  C6  UNL     1     -32.529  11.203  -0.622  1.00 20.00     0.112 C 
ENDROOT
BRANCH   1   4
HETATM    4  C5  UNL     1     -32.078   7.726   1.528  1.00 20.00     0.126 C 
HETATM    5  C3  UNL     1     -33.258   6.721   1.381  1.00 20.00     0.057 C 
HETATM    6  C4  UNL     1     -33.309   6.795   2.921  1.00 20.00     0.127 C 
HETATM    7  C7  UNL     1     -33.019   5.350   0.779  1.00 20.00     0.016 C 
HETATM    8  C8  UNL     1     -34.651   7.113   3.548  1.00 20.00     0.040 C 
HETATM    9  O10 UNL     1     -32.445   7.965   2.918  1.00 20.00    -0.362 OA
HETATM   10  C9  UNL     1     -30.652   7.197   1.451  1.00 20.00     0.061 C 
ENDBRANCH   1   4
TORSDOF 1
