REMARK  2 active torsions:
REMARK  status: ('A' for Active; 'I' for Inactive)
REMARK    1  A    between atoms: C3_3  and  C4_4 
REMARK    2  A    between atoms: C3_3  and  O10_10 
ROOT
HETATM    1  C1  UNL     1     -32.672   8.323   3.266  1.00 20.00    -0.066 A 
HETATM    2  C2  UNL     1     -32.407   8.718   4.493  1.00 20.00     0.016 C 
HETATM    3  C4  UNL     1     -33.547   7.589   2.436  1.00 20.00     0.126 A 
HETATM    4  C5  UNL     1     -32.266   8.366   1.909  1.00 20.00    -0.008 A 
HETATM    5  C6  UNL     1     -31.042   7.594   1.499  1.00 20.00     0.021 C 
HETATM    6  C7  UNL     1     -32.498   9.630   1.127  1.00 20.00     0.021 C 
ENDROOT
BRANCH   3   7
HETATM    7  C3  UNL     1     -33.518   6.135   2.603  1.00 20.00     0.267 C 
HETATM    8  O9  UNL     1     -32.881   5.376   1.885  1.00 20.00    -0.264 OA
BRANCH   7   9
HETATM    9  O10 UNL     1     -34.299   5.782   3.663  1.00 20.00    -0.326 OA
HETATM   10  C8  UNL     1     -34.361   4.379   3.941  1.00 20.00     0.213 C 
ENDBRANCH   7   9
ENDBRANCH   3   7
TORSDOF 2
