REMARK  1 active torsions:
REMARK  status: ('A' for Active; 'I' for Inactive)
REMARK    1  A    between atoms: C2_2  and  C4_4 
ROOT
HETATM    1  C1  UNL     1     -32.744   7.440   1.498  1.00 20.00     0.318 A 
HETATM    2  C2  UNL     1     -33.116   6.592   2.691  1.00 20.00     0.357 A 
HETATM    3  C3  UNL     1     -31.853   5.203   1.143  1.00 20.00     0.310 C 
HETATM    4  N5  UNL     1     -33.043   6.019   1.352  1.00 20.00     0.102 N 
ENDROOT
BRANCH   2   5
HETATM    5  C4  UNL     1     -34.448   6.747   3.335  1.00 20.00     0.419 C 
HETATM    6  F6  UNL     1     -34.439   7.727   4.271  1.00 20.00    -0.169 F 
HETATM    7  F7  UNL     1     -35.406   7.064   2.430  1.00 20.00    -0.169 F 
HETATM    8  F8  UNL     1     -34.839   5.605   3.953  1.00 20.00    -0.169 F 
ENDBRANCH   2   5
TORSDOF 1
