REMARK  1 active torsions:
REMARK  status: ('A' for Active; 'I' for Inactive)
REMARK    1  A    between atoms: C3_3  and  C7_7 
ROOT
HETATM    1  C1  UNL     1     -34.895   7.023   4.259  1.00 20.00    -0.029 C 
HETATM    2  C2  UNL     1     -35.016   5.690   4.204  1.00 20.00    -0.026 C 
HETATM    3  C4  UNL     1     -33.605   7.749   4.011  1.00 20.00     0.039 C 
HETATM    4  C5  UNL     1     -32.498   5.471   4.018  1.00 20.00     0.020 C 
HETATM    5  C6  UNL     1     -33.864   4.763   3.918  1.00 20.00     0.004 C 
HETATM    6  C7  UNL     1     -32.512   6.868   3.391  1.00 20.00     0.059 C 
HETATM    7  C9  UNL     1     -33.895   3.553   4.854  1.00 20.00     0.014 C 
ENDROOT
BRANCH   6   8
HETATM    8  C3  UNL     1     -32.668   6.779   1.898  1.00 20.00     0.127 C 
HETATM    9  C8  UNL     1     -32.652   8.077   1.137  1.00 20.00     0.091 C 
HETATM   10  O10 UNL     1     -32.802   5.698   1.327  1.00 20.00    -0.298 OA
ENDBRANCH   6   8
TORSDOF 1
