REMARK  2 active torsions:
REMARK  status: ('A' for Active; 'I' for Inactive)
REMARK    1  A    between atoms: C4_4  and  C6_6 
REMARK    2  A    between atoms: C7_7  and  O10_10 
ROOT
HETATM    1  C1  UNL     1     -32.785   9.764   0.722  1.00 20.00     0.218 C 
HETATM    2  C4  UNL     1     -33.311   9.172   1.754  1.00 20.00     0.043 C 
HETATM    3  O9  UNL     1     -32.310  10.298  -0.212  1.00 20.00    -0.284 OA
ENDROOT
BRANCH   2   4
HETATM    4  C6  UNL     1     -32.647   8.095   2.554  1.00 20.00     0.064 C 
HETATM    5  C3  UNL     1     -31.690   7.300   1.713  1.00 20.00    -0.020 C 
HETATM    6  C2  UNL     1     -32.116   6.052   1.494  1.00 20.00    -0.027 C 
HETATM    7  C5  UNL     1     -33.424   5.785   2.157  1.00 20.00     0.059 C 
HETATM    8  C7  UNL     1     -33.572   6.983   3.103  1.00 20.00     0.135 C 
BRANCH   8   9
HETATM    9  O10 UNL     1     -34.929   7.372   3.232  1.00 20.00    -0.389 OA
HETATM   10  C8  UNL     1     -35.621   6.533   4.143  1.00 20.00     0.202 C 
ENDBRANCH   8   9
ENDBRANCH   2   4
TORSDOF 2
