REMARK  1 active torsions:
REMARK  status: ('A' for Active; 'I' for Inactive)
REMARK    1  A    between atoms: C1_1  and  C3_3 
ROOT
HETATM    1  C1  UNL     1     -33.557   6.227   2.729  1.00 20.00    -0.007 C 
HETATM    2  C2  UNL     1     -33.753   7.158   3.675  1.00 20.00    -0.016 C 
HETATM    3  C4  UNL     1     -32.894   6.698   1.469  1.00 20.00     0.058 C 
HETATM    4  C5  UNL     1     -32.206   8.030   1.790  1.00 20.00     0.052 C 
HETATM    5  C6  UNL     1     -34.395   7.022   5.016  1.00 20.00     0.056 C 
HETATM    6  C7  UNL     1     -32.168   8.980   0.606  1.00 20.00     0.022 C 
HETATM    7  S9  UNL     1     -33.156   8.729   3.187  1.00 20.00    -0.129 SA
ENDROOT
BRANCH   1   8
HETATM    8  C3  UNL     1     -33.951   4.825   2.844  1.00 20.00     0.266 C 
HETATM    9  O8  UNL     1     -33.994   4.234   3.918  1.00 20.00    -0.302 OA
ENDBRANCH   1   8
TORSDOF 1
