REMARK  2 active torsions:
REMARK  status: ('A' for Active; 'I' for Inactive)
REMARK    1  A    between atoms: C1_1  and  C7_7 
REMARK    2  A    between atoms: C4_4  and  C7_7 
ROOT
HETATM    1  C6  UNL     1     -33.601   4.043   4.131  1.00 20.00     0.018 C 
HETATM    2  C7  UNL     1     -33.340   5.479   3.683  1.00 20.00     0.055 C 
ENDROOT
BRANCH   2   3
HETATM    3  C1  UNL     1     -34.510   6.388   4.047  1.00 20.00     0.127 C 
HETATM    4  C5  UNL     1     -34.181   7.822   4.378  1.00 20.00     0.091 C 
HETATM    5  O8  UNL     1     -35.671   5.981   4.100  1.00 20.00    -0.298 OA
ENDBRANCH   2   3
BRANCH   2   6
HETATM    6  C4  UNL     1     -33.084   5.537   2.181  1.00 20.00    -0.004 A 
HETATM    7  C2  UNL     1     -32.228   6.629   1.601  1.00 20.00     0.006 A 
HETATM    8  C3  UNL     1     -31.722   5.214   1.633  1.00 20.00     0.006 A 
ENDBRANCH   2   6
TORSDOF 2
