REMARK  1 active torsions:
REMARK  status: ('A' for Active; 'I' for Inactive)
REMARK    1  A    between atoms: C1_1  and  C4_4 
ROOT
HETATM    1  C1  UNL     1     -32.043   8.421   0.978  1.00 20.00    -0.047 C 
HETATM    2  C2  UNL     1     -32.074   9.282   0.142  1.00 20.00    -0.106 C 
HETATM    3  C6  UNL     1     -32.112  10.331  -0.876  1.00 20.00     0.112 C 
ENDROOT
BRANCH   1   4
HETATM    4  C4  UNL     1     -32.006   7.372   1.998  1.00 20.00     0.343 C 
HETATM    5  O8  UNL     1     -32.249   6.092   1.396  1.00 20.00    -0.348 OA
HETATM    6  C3  UNL     1     -33.168   5.451   2.281  1.00 20.00     0.203 C 
HETATM    7  C5  UNL     1     -33.974   6.603   2.829  1.00 20.00     0.145 C 
HETATM    8  C7  UNL     1     -34.675   6.299   4.135  1.00 20.00     0.042 C 
HETATM    9  O9  UNL     1     -32.992   7.627   3.011  1.00 20.00    -0.343 OA
ENDBRANCH   1   4
TORSDOF 1
