REMARK  1 active torsions:
REMARK  status: ('A' for Active; 'I' for Inactive)
REMARK    1  A    between atoms: C1_1  and  C8_8 
ROOT
HETATM    1  C2  UNL     1     -34.164   7.020   1.416  1.00 20.00     0.019 A 
HETATM    2  C3  UNL     1     -32.156   6.321   1.838  1.00 20.00     0.019 A 
HETATM    3  C4  UNL     1     -33.023   7.912   3.029  1.00 20.00     0.019 A 
HETATM    4  C5  UNL     1     -32.878   6.859   0.593  1.00 20.00     0.038 A 
HETATM    5  C6  UNL     1     -33.745   8.451   1.785  1.00 20.00     0.038 A 
HETATM    6  C7  UNL     1     -31.735   7.752   2.207  1.00 20.00     0.038 A 
HETATM    7  C8  UNL     1     -33.441   6.484   2.658  1.00 20.00     0.050 A 
HETATM    8  C9  UNL     1     -32.465   8.276   0.975  1.00 20.00     0.117 A 
HETATM    9  F11 UNL     1     -31.974   9.177   0.129  1.00 20.00    -0.242 F 
ENDROOT
BRANCH   7  10
HETATM   10  C1  UNL     1     -33.991   5.467   3.610  1.00 20.00     0.228 C 
HETATM   11  O10 UNL     1     -33.427   4.395   3.806  1.00 20.00    -0.279 OA
HETATM   12 CL12 UNL     1     -35.466   6.001   4.357  1.00 20.00    -0.043 Cl
ENDBRANCH   7  10
TORSDOF 1
