REMARK  2 active torsions:
REMARK  status: ('A' for Active; 'I' for Inactive)
REMARK    1  A    between atoms: C1_1  and  C2_2 
REMARK    2  A    between atoms: N7_7  and  O8_8 
ROOT
HETATM    1  C2  UNL     1     -33.154   5.450   3.540  1.00 20.00     0.115 A 
HETATM    2  C3  UNL     1     -33.648   5.988   2.197  1.00 20.00     0.033 A 
HETATM    3  C4  UNL     1     -34.135   6.570   3.483  1.00 20.00     0.260 A 
HETATM    4  C5  UNL     1     -34.619   5.181   1.378  1.00 20.00     0.022 C 
HETATM    5  C6  UNL     1     -32.678   6.797   1.378  1.00 20.00     0.022 C 
HETATM    6  F9  UNL     1     -33.761   7.837   3.874  1.00 20.00    -0.205 F 
HETATM    7  F10 UNL     1     -35.437   6.388   3.897  1.00 20.00    -0.205 F 
ENDROOT
BRANCH   1   8
HETATM    8  C1  UNL     1     -33.579   4.131   4.021  1.00 20.00     0.130 C 
HETATM    9  N7  UNL     1     -32.939   3.064   3.679  1.00 20.00    -0.152 NA
BRANCH   9  10
HETATM   10  O8  UNL     1     -33.557   1.964   4.277  1.00 20.00    -0.267 OA
HETATM   11  H19 UNL     1     -33.004   1.231   3.958  1.00 20.00     0.247 HD
ENDBRANCH   9  10
ENDBRANCH   1   8
TORSDOF 2
