REMARK  2 active torsions:
REMARK  status: ('A' for Active; 'I' for Inactive)
REMARK    1  A    between atoms: C6_6  and  C9_9 
REMARK    2  A    between atoms: C9_9  and  N10_10 
ROOT
HETATM    1  C1  UNL     1     -33.869   5.617   3.304  1.00 20.00     0.006 C 
HETATM    2  C2  UNL     1     -33.184   5.072   2.287  1.00 20.00     0.004 C 
HETATM    3  C3  UNL     1     -33.814   7.044   3.563  1.00 20.00    -0.040 C 
HETATM    4  C4  UNL     1     -34.600   7.626   4.481  1.00 20.00     0.020 C 
HETATM    5  C7  UNL     1     -32.371   5.903   1.330  1.00 20.00     0.300 C 
HETATM    6  C8  UNL     1     -32.814   7.828   2.738  1.00 20.00     0.310 C 
HETATM    7  N10 UNL     1     -32.742   7.330   1.354  1.00 20.00     0.099 N 
ENDROOT
BRANCH   7   8
HETATM    8  C9  UNL     1     -31.809   8.121   0.556  1.00 20.00     0.299 C 
BRANCH   8   9
HETATM    9  C6  UNL     1     -32.460   9.418   0.202  1.00 20.00    -0.007 C 
HETATM   10  C5  UNL     1     -33.175   9.614  -0.912  1.00 20.00     0.008 C 
ENDBRANCH   8   9
ENDBRANCH   7   8
TORSDOF 2
