REMARK  1 active torsions:
REMARK  status: ('A' for Active; 'I' for Inactive)
REMARK    1  A    between atoms: C2_2  and  C9_9 
ROOT
HETATM    1  C1  UNL     1     -34.960   6.947   3.518  1.00 20.00     0.144 C 
HETATM    2  C3  UNL     1     -34.350   8.315   3.740  1.00 20.00     0.084 C 
HETATM    3  C4  UNL     1     -32.784   6.817   1.606  1.00 20.00     0.002 C 
HETATM    4  C5  UNL     1     -32.134   7.833   2.554  1.00 20.00     0.005 C 
HETATM    5  C6  UNL     1     -33.281   5.551   2.320  1.00 20.00     0.027 C 
HETATM    6  C7  UNL     1     -32.914   6.589   4.575  1.00 20.00     0.031 C 
HETATM    7  C8  UNL     1     -32.862   7.964   3.906  1.00 20.00    -0.006 C 
HETATM    8  C9  UNL     1     -33.919   5.852   3.685  1.00 20.00     0.097 C 
HETATM    9  O10 UNL     1     -36.134   6.760   3.230  1.00 20.00    -0.297 OA
ENDROOT
BRANCH   8  10
HETATM   10  C2  UNL     1     -34.417   4.614   4.357  1.00 20.00     0.234 C 
HETATM   11  O11 UNL     1     -35.580   4.509   4.737  1.00 20.00    -0.279 OA
HETATM   12 CL12 UNL     1     -33.175   3.409   4.512  1.00 20.00    -0.043 Cl
ENDBRANCH   8  10
TORSDOF 1
