REMARK  1 active torsions:
REMARK  status: ('A' for Active; 'I' for Inactive)
REMARK    1  A    between atoms: C3_3  and  C6_6 
ROOT
HETATM    1  C1  UNL     1     -35.433   5.377   4.641  1.00 20.00    -0.030 A 
HETATM    2  C2  UNL     1     -35.186   6.654   4.304  1.00 20.00    -0.025 A 
HETATM    3  C4  UNL     1     -34.259   4.516   4.247  1.00 20.00     0.033 A 
HETATM    4  C5  UNL     1     -33.871   6.857   3.674  1.00 20.00     0.024 A 
HETATM    5  C6  UNL     1     -33.550   6.215   2.348  1.00 20.00     0.068 A 
HETATM    6  C7  UNL     1     -33.257   5.471   3.629  1.00 20.00     0.009 A 
ENDROOT
BRANCH   5   7
HETATM    7  C3  UNL     1     -32.428   6.739   1.559  1.00 20.00     0.128 C 
HETATM    8  C8  UNL     1     -31.362   5.754   1.162  1.00 20.00     0.091 C 
HETATM    9  O9  UNL     1     -32.364   7.924   1.237  1.00 20.00    -0.298 OA
ENDBRANCH   5   7
TORSDOF 1
