REMARK  1 active torsions:
REMARK  status: ('A' for Active; 'I' for Inactive)
REMARK    1  A    between atoms: C1_1  and  C4_4 
ROOT
HETATM    1  C2  UNL     1     -33.001   9.468   2.405  1.00 20.00     0.037 C 
HETATM    2  C3  UNL     1     -32.519   7.832   1.120  1.00 20.00     0.037 C 
HETATM    3  C4  UNL     1     -32.617   7.989   2.658  1.00 20.00     0.058 C 
HETATM    4  C5  UNL     1     -32.328   9.370   1.008  1.00 20.00     0.035 C 
HETATM    5  C7  UNL     1     -30.857   9.801   1.011  1.00 20.00     0.032 C 
HETATM    6 CL9  UNL     1     -33.203  10.170  -0.339  1.00 20.00    -0.120 Cl
ENDROOT
BRANCH   3   7
HETATM    7  C1  UNL     1     -33.626   7.101   3.392  1.00 20.00     0.127 C 
HETATM    8  C6  UNL     1     -34.377   7.732   4.534  1.00 20.00     0.091 C 
HETATM    9  O8  UNL     1     -33.815   5.931   3.064  1.00 20.00    -0.298 OA
ENDBRANCH   3   7
TORSDOF 1
