REMARK  1 active torsions:
REMARK  status: ('A' for Active; 'I' for Inactive)
REMARK    1  A    between atoms: C3_3  and  C7_7 
ROOT
HETATM    1  C1  UNL     1     -31.706   7.780   1.317  1.00 20.00    -0.029 C 
HETATM    2  C2  UNL     1     -31.777   6.680   0.554  1.00 20.00    -0.026 C 
HETATM    3  C4  UNL     1     -32.548   7.990   2.540  1.00 20.00     0.039 C 
HETATM    4  C5  UNL     1     -33.252   5.579   2.290  1.00 20.00     0.020 C 
HETATM    5  C6  UNL     1     -32.686   5.517   0.859  1.00 20.00     0.004 C 
HETATM    6  C7  UNL     1     -33.710   6.995   2.643  1.00 20.00     0.059 C 
HETATM    7  C9  UNL     1     -31.963   4.188   0.639  1.00 20.00     0.014 C 
ENDROOT
BRANCH   6   8
HETATM    8  C3  UNL     1     -34.269   7.025   4.032  1.00 20.00     0.127 C 
HETATM    9  C8  UNL     1     -35.444   6.126   4.308  1.00 20.00     0.091 C 
HETATM   10  O10 UNL     1     -33.790   7.747   4.905  1.00 20.00    -0.298 OA
ENDBRANCH   6   8
TORSDOF 1
