REMARK  3 active torsions:
REMARK  status: ('A' for Active; 'I' for Inactive)
REMARK    1  A    between atoms: C1_1  and  C2_2 
REMARK    2  A    between atoms: C1_1  and  O10_10 
REMARK    3  A    between atoms: C7_7  and  O10_10 
ROOT
HETATM    1  C1  UNL     1     -32.848   6.841   1.889  1.00 20.00     0.291 C 
HETATM    2  O8  UNL     1     -32.209   5.852   1.556  1.00 20.00    -0.262 OA
ENDROOT
BRANCH   1   3
HETATM    3  C2  UNL     1     -34.090   6.793   2.659  1.00 20.00     0.250 A 
HETATM    4  C3  UNL     1     -34.188   7.378   4.045  1.00 20.00     0.157 A 
HETATM    5  C4  UNL     1     -33.050   8.060   4.715  1.00 20.00     0.042 C 
HETATM    6  O9  UNL     1     -34.004   5.975   3.838  1.00 20.00    -0.365 OA
ENDBRANCH   1   3
BRANCH   1   7
HETATM    7  O10 UNL     1     -32.532   8.139   1.614  1.00 20.00    -0.315 OA
BRANCH   7   8
HETATM    8  C7  UNL     1     -32.446   8.469   0.224  1.00 20.00     0.123 C 
HETATM    9  C5  UNL     1     -32.862   9.919   0.028  1.00 20.00     0.040 C 
HETATM   10  C6  UNL     1     -31.029   8.215  -0.265  1.00 20.00     0.040 C 
ENDBRANCH   7   8
ENDBRANCH   1   7
TORSDOF 3
