REMARK  3 active torsions:
REMARK  status: ('A' for Active; 'I' for Inactive)
REMARK    1  A    between atoms: C1_1  and  C2_2 
REMARK    2  A    between atoms: C4_4  and  C9_9 
REMARK    3  A    between atoms: C5_5  and  C9_9 
ROOT
HETATM    1  C2  UNL     1     -32.572   7.466   1.761  1.00 20.00    -0.004 C 
HETATM    2  C4  UNL     1     -33.300   6.644   2.532  1.00 20.00    -0.015 C 
ENDROOT
BRANCH   2   3
HETATM    3  C9  UNL     1     -32.782   5.339   3.076  1.00 20.00     0.073 C 
HETATM    4  C8  UNL     1     -32.389   4.387   1.952  1.00 20.00     0.022 C 
BRANCH   3   5
HETATM    5  C5  UNL     1     -33.857   4.695   3.948  1.00 20.00     0.130 C 
HETATM    6  C7  UNL     1     -33.500   3.382   4.599  1.00 20.00     0.091 C 
HETATM    7  O10 UNL     1     -34.977   5.185   4.096  1.00 20.00    -0.298 OA
ENDBRANCH   3   5
ENDBRANCH   2   3
BRANCH   1   8
HETATM    8  C1  UNL     1     -33.077   8.718   1.243  1.00 20.00    -0.005 C 
HETATM    9  C3  UNL     1     -32.349   9.539   0.473  1.00 20.00    -0.031 C 
HETATM   10  C6  UNL     1     -32.858  10.835  -0.068  1.00 20.00     0.036 C 
ENDBRANCH   1   8
TORSDOF 3
