REMARK  1 active torsions:
REMARK  status: ('A' for Active; 'I' for Inactive)
REMARK    1  A    between atoms: C9_9  and  C10_10 
ROOT
HETATM    1  C1  UNL     1     -34.522   4.732   3.639  1.00 20.00     0.001 A 
HETATM    2  C2  UNL     1     -35.124   5.817   4.424  1.00 20.00     0.001 A 
HETATM    3  C3  UNL     1     -33.594   4.964   2.688  1.00 20.00     0.012 A 
HETATM    4  C4  UNL     1     -34.784   7.110   4.241  1.00 20.00     0.012 A 
HETATM    5  C5  UNL     1     -32.309   6.843   1.587  1.00 20.00     0.001 A 
HETATM    6  C6  UNL     1     -33.274   8.584   2.848  1.00 20.00     0.001 A 
HETATM    7  C7  UNL     1     -33.196   6.332   2.453  1.00 20.00    -0.029 A 
HETATM    8  C8  UNL     1     -33.794   7.411   3.233  1.00 20.00    -0.029 A 
HETATM    9  C10 UNL     1     -32.268   8.341   1.752  1.00 20.00     0.094 A 
ENDROOT
BRANCH   9  10
HETATM   10  C9  UNL     1     -32.741   8.991   0.491  1.00 20.00     0.243 C 
HETATM   11  O11 UNL     1     -32.079   9.811  -0.136  1.00 20.00    -0.306 OA
ENDBRANCH   9  10
TORSDOF 1
