REMARK  4 active torsions:
REMARK  status: ('A' for Active; 'I' for Inactive)
REMARK    1  A    between atoms: C1_1  and  C7_7 
REMARK    2  A    between atoms: C2_2  and  C9_9 
REMARK    3  A    between atoms: C4_4  and  C9_9 
REMARK    4  A    between atoms: C9_9  and  O10_10 
ROOT
HETATM    1  C1  UNL     1     -33.049   7.452   2.784  1.00 20.00    -0.094 C 
HETATM    2  C2  UNL     1     -32.327   7.950   1.964  1.00 20.00    -0.070 C 
ENDROOT
BRANCH   2   3
HETATM    3  C9  UNL     1     -31.437   8.553   0.964  1.00 20.00     0.219 C 
BRANCH   3   4
HETATM    4  C4  UNL     1     -32.238   9.359  -0.012  1.00 20.00     0.007 C 
HETATM    5  C3  UNL     1     -33.034  10.377   0.337  1.00 20.00     0.010 C 
ENDBRANCH   3   4
BRANCH   3   6
HETATM    6  O10 UNL     1     -30.508   9.426   1.600  1.00 20.00    -0.380 OA
HETATM    7  H22 UNL     1     -31.032  10.108   2.047  1.00 20.00     0.211 HD
ENDBRANCH   3   6
ENDBRANCH   2   3
BRANCH   1   8
HETATM    8  C7  UNL     1     -33.917   6.857   3.768  1.00 20.00     0.020 A 
HETATM    9  C5  UNL     1     -35.310   6.474   3.322  1.00 20.00     0.024 A 
HETATM   10  C6  UNL     1     -34.289   5.404   3.573  1.00 20.00     0.024 A 
HETATM   11  C8  UNL     1     -33.737   7.359   5.172  1.00 20.00     0.029 C 
ENDBRANCH   1   8
TORSDOF 4
