REMARK  2 active torsions:
REMARK  status: ('A' for Active; 'I' for Inactive)
REMARK    1  A    between atoms: C7_7  and  O11_11 
REMARK    2  A    between atoms: C10_10  and  O11_11 
ROOT
HETATM    1  C1  UNL     1     -30.414   9.334   0.599  1.00 20.00    -0.019 C 
HETATM    2  C2  UNL     1     -30.832   8.803  -0.566  1.00 20.00    -0.019 C 
HETATM    3  C3  UNL     1     -32.446  10.722   0.697  1.00 20.00    -0.019 C 
HETATM    4  C4  UNL     1     -32.865  10.189  -0.471  1.00 20.00    -0.019 C 
HETATM    5  C5  UNL     1     -31.658   9.640   1.420  1.00 20.00     0.060 C 
HETATM    6  C6  UNL     1     -32.352   8.758  -0.515  1.00 20.00     0.060 C 
HETATM    7  C7  UNL     1     -32.530   8.452   0.982  1.00 20.00     0.144 C 
ENDROOT
BRANCH   7   8
HETATM    8  O11 UNL     1     -32.030   7.192   1.389  1.00 20.00    -0.379 OA
BRANCH   8   9
HETATM    9  C10 UNL     1     -33.060   6.212   1.456  1.00 20.00     0.114 C 
HETATM   10  C8  UNL     1     -32.475   4.848   1.122  1.00 20.00     0.039 C 
HETATM   11  C9  UNL     1     -33.686   6.237   2.842  1.00 20.00     0.039 C 
ENDBRANCH   8   9
ENDBRANCH   7   8
TORSDOF 2
