REMARK  1 active torsions:
REMARK  status: ('A' for Active; 'I' for Inactive)
REMARK    1  A    between atoms: C3_3  and  C4_4 
ROOT
HETATM    1  C1  UNL     1     -32.241   7.793   2.319  1.00 20.00     0.142 A 
HETATM    2  C2  UNL     1     -32.909   5.633   1.918  1.00 20.00     0.087 A 
HETATM    3  C3  UNL     1     -33.136   6.750   2.692  1.00 20.00     0.052 A 
HETATM    4  N5  UNL     1     -31.378   7.535   1.339  1.00 20.00    -0.223 NA
HETATM    5  S7  UNL     1     -31.635   5.975   0.826  1.00 20.00    -0.000 SA
ENDROOT
BRANCH   3   6
HETATM    6  C4  UNL     1     -34.141   6.813   3.717  1.00 20.00     0.254 C 
HETATM    7  O6  UNL     1     -34.289   7.871   4.381  1.00 20.00    -0.274 OA
HETATM    8 CL8  UNL     1     -35.197   5.425   4.081  1.00 20.00    -0.038 Cl
ENDBRANCH   3   6
TORSDOF 1
