REMARK  0 active torsions:
REMARK  status: ('A' for Active; 'I' for Inactive)
ROOT
HETATM    1  C1  UNL     1     -33.749   7.492   3.686  1.00 20.00     0.352 C 
HETATM    2  C2  UNL     1     -32.636   7.303   1.741  1.00 20.00     0.451 C 
HETATM    3  C3  UNL     1     -33.213   5.978   2.111  1.00 20.00     0.451 C 
HETATM    4  O4  UNL     1     -32.653   8.049   2.948  1.00 20.00    -0.294 OA
HETATM    5  O5  UNL     1     -34.212   6.281   3.072  1.00 20.00    -0.294 OA
HETATM    6  F6  UNL     1     -33.408   7.946   0.837  1.00 20.00    -0.166 F 
HETATM    7  F7  UNL     1     -31.385   7.216   1.253  1.00 20.00    -0.166 F 
HETATM    8  F8  UNL     1     -32.292   5.182   2.697  1.00 20.00    -0.166 F 
HETATM    9  F9  UNL     1     -33.744   5.323   1.064  1.00 20.00    -0.166 F 
ENDROOT
TORSDOF 0
