REMARK  2 active torsions:
REMARK  status: ('A' for Active; 'I' for Inactive)
REMARK    1  A    between atoms: C1_1  and  C5_5 
REMARK    2  A    between atoms: C6_6  and  C9_9 
ROOT
HETATM    1  C2  UNL     1     -32.441   7.056   0.783  1.00 20.00     0.012 C 
HETATM    2  C3  UNL     1     -32.229   6.101   1.951  1.00 20.00     0.006 C 
HETATM    3  C4  UNL     1     -31.798   8.296   2.801  1.00 20.00     0.016 C 
HETATM    4  C5  UNL     1     -31.953   8.417   1.280  1.00 20.00     0.047 C 
HETATM    5  C6  UNL     1     -32.443   6.963   3.192  1.00 20.00    -0.010 C 
ENDROOT
BRANCH   5   6
HETATM    6  C9  UNL     1     -33.921   7.115   3.546  1.00 20.00    -0.019 C 
HETATM    7  C7  UNL     1     -34.565   5.749   3.792  1.00 20.00     0.010 C 
HETATM    8  C8  UNL     1     -34.097   8.012   4.773  1.00 20.00     0.010 C 
ENDBRANCH   5   6
BRANCH   4   9
HETATM    9  C1  UNL     1     -32.920   9.506   0.933  1.00 20.00     0.235 C 
HETATM   10  O10 UNL     1     -32.626  10.478   0.244  1.00 20.00    -0.306 OA
ENDBRANCH   4   9
TORSDOF 2
