REMARK  1 active torsions:
REMARK  status: ('A' for Active; 'I' for Inactive)
REMARK    1  A    between atoms: C3_3  and  N6_6 
ROOT
HETATM    1  C1  UNL     1     -32.839   6.982   2.070  1.00 20.00     0.216 C 
HETATM    2  C4  UNL     1     -33.718   4.926   2.623  1.00 20.00     0.158 C 
HETATM    3  C5  UNL     1     -32.485   4.756   1.765  1.00 20.00     0.198 C 
HETATM    4  N6  UNL     1     -33.756   6.336   2.873  1.00 20.00    -0.327 N 
HETATM    5  O7  UNL     1     -32.128   6.079   1.332  1.00 20.00    -0.325 OA
HETATM    6  S8  UNL     1     -32.492   8.592   1.868  1.00 20.00    -0.033 SA
ENDROOT
BRANCH   4   7
HETATM    7  C3  UNL     1     -34.640   6.891   3.752  1.00 20.00     0.083 C 
HETATM    8  C2  UNL     1     -34.399   8.033   4.400  1.00 20.00     0.030 C 
ENDBRANCH   4   7
TORSDOF 1
