REMARK  0 active torsions:
REMARK  status: ('A' for Active; 'I' for Inactive)
ROOT
HETATM    1  C1  UNL     1     -33.109   7.705   3.392  1.00 20.00     0.169 C 
HETATM    2  C2  UNL     1     -33.218   6.244   1.841  1.00 20.00     0.062 C 
HETATM    3  C3  UNL     1     -32.313   7.477   2.095  1.00 20.00     0.058 C 
HETATM    4  C4  UNL     1     -33.835   6.333   3.269  1.00 20.00     0.174 C 
HETATM    5  C5  UNL     1     -32.397   8.589   1.069  1.00 20.00     0.018 C 
HETATM    6  O6  UNL     1     -33.143   8.609   4.202  1.00 20.00    -0.294 OA
HETATM    7 CL7  UNL     1     -33.216   5.160   4.479  1.00 20.00    -0.093 Cl
HETATM    8 CL8  UNL     1     -35.618   6.507   3.344  1.00 20.00    -0.093 Cl
ENDROOT
TORSDOF 0
