REMARK  2 active torsions:
REMARK  status: ('A' for Active; 'I' for Inactive)
REMARK    1  A    between atoms: C5_5  and  C7_7 
REMARK    2  A    between atoms: C5_5  and  O11_11 
ROOT
HETATM    1  C1  UNL     1     -31.259   8.570   1.490  1.00 20.00     0.003 A 
HETATM    2  C2  UNL     1     -31.502   7.363   2.007  1.00 20.00    -0.007 A 
HETATM    3  C3  UNL     1     -32.399   9.056   0.761  1.00 20.00    -0.066 A 
HETATM    4  C4  UNL     1     -32.500  10.253   0.177  1.00 20.00     0.019 C 
HETATM    5  C6  UNL     1     -33.457   7.981   0.769  1.00 20.00     0.061 A 
HETATM    6  C7  UNL     1     -32.891   6.883   1.696  1.00 20.00     0.066 A 
HETATM    7  C8  UNL     1     -32.903   5.505   1.043  1.00 20.00     0.031 C 
ENDROOT
BRANCH   6   8
HETATM    8  C5  UNL     1     -33.629   6.841   3.007  1.00 20.00     0.271 C 
HETATM    9  O10 UNL     1     -33.810   7.817   3.723  1.00 20.00    -0.264 OA
BRANCH   8  10
HETATM   10  O11 UNL     1     -34.050   5.568   3.253  1.00 20.00    -0.326 OA
HETATM   11  C9  UNL     1     -34.770   5.384   4.476  1.00 20.00     0.213 C 
ENDBRANCH   8  10
ENDBRANCH   6   8
TORSDOF 2
