REMARK  2 active torsions:
REMARK  status: ('A' for Active; 'I' for Inactive)
REMARK    1  A    between atoms: C1_1  and  C8_8 
REMARK    2  A    between atoms: C3_3  and  C8_8 
ROOT
HETATM    1  C2  UNL     1     -32.703   9.001   0.388  1.00 20.00     0.153 A 
HETATM    2  C3  UNL     1     -32.072   7.982   1.319  1.00 20.00     0.093 A 
HETATM    3  C5  UNL     1     -32.391  10.455   0.433  1.00 20.00     0.042 C 
HETATM    4  C6  UNL     1     -31.077   8.387   2.360  1.00 20.00     0.049 C 
HETATM    5  O10 UNL     1     -31.615   8.167  -0.031  1.00 20.00    -0.369 OA
ENDROOT
BRANCH   2   6
HETATM    6  C8  UNL     1     -32.780   6.682   1.541  1.00 20.00     0.087 C 
HETATM    7  C7  UNL     1     -31.815   5.488   1.473  1.00 20.00     0.021 C 
BRANCH   6   8
HETATM    8  C1  UNL     1     -33.517   6.683   2.888  1.00 20.00     0.129 C 
HETATM    9  C4  UNL     1     -34.264   5.425   3.253  1.00 20.00     0.091 C 
HETATM   10  O9  UNL     1     -33.548   7.669   3.625  1.00 20.00    -0.298 OA
ENDBRANCH   6   8
ENDBRANCH   2   6
TORSDOF 2
