REMARK  1 active torsions:
REMARK  status: ('A' for Active; 'I' for Inactive)
REMARK    1  A    between atoms: C6_6  and  C9_9 
ROOT
HETATM    1  C1  UNL     1     -34.298   5.425   3.879  1.00 20.00     0.119 C 
HETATM    2  C2  UNL     1     -32.856   6.148   2.036  1.00 20.00     0.043 A 
HETATM    3  C3  UNL     1     -32.239   7.200   1.368  1.00 20.00     0.012 A 
HETATM    4  C4  UNL     1     -33.217   8.699   2.934  1.00 20.00     0.125 A 
HETATM    5  C5  UNL     1     -33.635   6.449   3.141  1.00 20.00     0.136 A 
HETATM    6  C6  UNL     1     -32.418   8.503   1.819  1.00 20.00    -0.036 A 
HETATM    7  N10 UNL     1     -34.838   4.592   4.480  1.00 20.00    -0.190 NA
HETATM    8  N11 UNL     1     -33.832   7.702   3.609  1.00 20.00    -0.249 NA
ENDROOT
BRANCH   6   9
HETATM    9  C9  UNL     1     -31.774   9.649   1.125  1.00 20.00     0.020 A 
HETATM   10  C7  UNL     1     -32.632  10.790   0.637  1.00 20.00     0.010 A 
HETATM   11  C8  UNL     1     -32.016   9.848  -0.351  1.00 20.00     0.010 A 
ENDBRANCH   6   9
TORSDOF 1
