REMARK  2 active torsions:
REMARK  status: ('A' for Active; 'I' for Inactive)
REMARK    1  A    between atoms: C1_1  and  N9_9 
REMARK    2  A    between atoms: C4_4  and  C8_8 
ROOT
HETATM    1  C2  UNL     1     -31.527   6.634   1.310  1.00 20.00     0.031 C 
HETATM    2  C3  UNL     1     -32.836   8.014   2.784  1.00 20.00     0.130 C 
HETATM    3  C4  UNL     1     -31.859   8.102   1.617  1.00 20.00     0.005 C 
HETATM    4  C5  UNL     1     -32.764   5.833   1.733  1.00 20.00     0.083 C 
HETATM    5  C6  UNL     1     -33.641   5.429   0.552  1.00 20.00     0.032 C 
HETATM    6  N9  UNL     1     -33.460   6.707   2.670  1.00 20.00    -0.355 N 
ENDROOT
BRANCH   3   7
HETATM    7  C8  UNL     1     -32.458   8.840   0.423  1.00 20.00     0.002 C 
HETATM    8  C7  UNL     1     -32.815  10.254   0.760  1.00 20.00     0.005 C 
ENDBRANCH   3   7
BRANCH   6   9
HETATM    9  C1  UNL     1     -34.504   6.305   3.473  1.00 20.00     0.351 C 
HETATM   10  O10 UNL     1     -35.041   6.954   4.364  1.00 20.00    -0.284 OA
ENDBRANCH   6   9
TORSDOF 2
