REMARK  2 active torsions:
REMARK  status: ('A' for Active; 'I' for Inactive)
REMARK    1  A    between atoms: C4_4  and  O10_10 
REMARK    2  A    between atoms: C5_5  and  C6_6 
ROOT
HETATM    1  C1  UNL     1     -33.833   7.843   3.724  1.00 20.00     0.040 A 
HETATM    2  C2  UNL     1     -32.853   8.492   2.981  1.00 20.00     0.034 A 
HETATM    3  C3  UNL     1     -33.545   5.932   2.337  1.00 20.00     0.153 A 
HETATM    4  C4  UNL     1     -34.192   6.538   3.402  1.00 20.00     0.083 A 
HETATM    5  C5  UNL     1     -32.266   7.798   1.936  1.00 20.00     0.056 A 
HETATM    6  N9  UNL     1     -32.588   6.531   1.593  1.00 20.00    -0.258 NA
ENDROOT
BRANCH   5   7
HETATM    7  C6  UNL     1     -31.236   8.434   1.130  1.00 20.00     0.027 C 
HETATM    8  C7  UNL     1     -31.390   9.551   0.383  1.00 20.00    -0.029 C 
HETATM    9  C8  UNL     1     -32.670  10.315   0.274  1.00 20.00     0.036 C 
ENDBRANCH   5   7
BRANCH   4  10
HETATM   10  O10 UNL     1     -35.144   5.880   4.108  1.00 20.00    -0.359 OA
HETATM   11  H19 UNL     1     -35.495   6.445   4.817  1.00 20.00     0.217 HD
ENDBRANCH   4  10
TORSDOF 2
