REMARK  1 active torsions:
REMARK  status: ('A' for Active; 'I' for Inactive)
REMARK    1  A    between atoms: C1_1  and  C8_8 
REMARK       I    between atoms: C1_1  and  N9_9 
ROOT
HETATM    1  C1  UNL     1     -33.019   7.149   2.264  1.00 20.00     0.237 C 
HETATM    2  C2  UNL     1     -32.741  10.382  -0.580  1.00 20.00     0.013 A 
HETATM    3  C3  UNL     1     -31.770   8.110   0.272  1.00 20.00     0.130 A 
HETATM    4  C4  UNL     1     -32.796   9.597   1.911  1.00 20.00     0.130 A 
HETATM    5  C5  UNL     1     -31.574   9.521  -0.177  1.00 20.00     0.010 A 
HETATM    6  C6  UNL     1     -32.202  10.429   0.824  1.00 20.00     0.010 A 
HETATM    7  N9  UNL     1     -32.553   8.212   1.508  1.00 20.00    -0.350 N 
HETATM    8  O10 UNL     1     -32.826   5.965   1.981  1.00 20.00    -0.272 OA
ENDROOT
BRANCH   1   9
HETATM    9  C8  UNL     1     -33.800   7.521   3.499  1.00 20.00     0.170 C 
HETATM   10  C7  UNL     1     -34.777   6.426   3.858  1.00 20.00     0.036 C 
HETATM   11 CL11 UNL     1     -32.606   7.760   4.784  1.00 20.00    -0.115 Cl
ENDBRANCH   1   9
TORSDOF 1
