REMARK  1 active torsions:
REMARK  status: ('A' for Active; 'I' for Inactive)
REMARK    1  A    between atoms: C8_8  and  N10_10 
ROOT
HETATM    1  C1  UNL     1     -34.826   6.947   4.091  1.00 20.00     0.089 C 
HETATM    2  C8  UNL     1     -34.222   8.230   3.738  1.00 20.00     0.396 C 
HETATM    3  N9  UNL     1     -35.306   5.929   4.374  1.00 20.00    -0.195 NA
ENDROOT
BRANCH   2   4
HETATM    4  N10 UNL     1     -33.658   8.187   2.394  1.00 20.00     0.110 N 
HETATM    5  C5  UNL     1     -32.973   6.885   2.111  1.00 20.00     0.283 C 
HETATM    6  C6  UNL     1     -31.568   7.326   1.653  1.00 20.00     0.038 C 
HETATM    7  C2  UNL     1     -31.709   8.118   0.372  1.00 20.00    -0.022 C 
HETATM    8  C4  UNL     1     -31.325   8.479   2.621  1.00 20.00     0.050 C 
HETATM    9  C3  UNL     1     -32.332   9.262   0.695  1.00 20.00     0.005 C 
HETATM   10  C7  UNL     1     -32.594   9.208   2.186  1.00 20.00     0.247 C 
ENDBRANCH   2   4
TORSDOF 1
