REMARK  1 active torsions:
REMARK  status: ('A' for Active; 'I' for Inactive)
REMARK    1  A    between atoms: C1_1  and  C5_5 
ROOT
HETATM    1  C2  UNL     1     -32.883   5.643   1.505  1.00 20.00     0.013 C 
HETATM    2  C3  UNL     1     -31.532   6.318   1.722  1.00 20.00     0.009 C 
HETATM    3  C4  UNL     1     -33.116   7.628   2.932  1.00 20.00     0.021 C 
HETATM    4  C5  UNL     1     -33.878   6.418   2.376  1.00 20.00     0.055 C 
HETATM    5  C6  UNL     1     -31.874   7.779   2.040  1.00 20.00    -0.047 C 
HETATM    6  C8  UNL     1     -32.204   8.569   0.762  1.00 20.00     0.015 C 
HETATM    7  C9  UNL     1     -30.728   8.475   2.778  1.00 20.00     0.015 C 
ENDROOT
BRANCH   4   8
HETATM    8  C1  UNL     1     -34.419   5.565   3.483  1.00 20.00     0.127 C 
HETATM    9  C7  UNL     1     -35.810   5.881   3.963  1.00 20.00     0.091 C 
HETATM   10  O10 UNL     1     -33.760   4.649   3.973  1.00 20.00    -0.298 OA
ENDBRANCH   4   8
TORSDOF 1
