REMARK  2 active torsions:
REMARK  status: ('A' for Active; 'I' for Inactive)
REMARK    1  A    between atoms: C3_3  and  C7_7 
REMARK    2  A    between atoms: C8_8  and  C10_10 
ROOT
HETATM    1  C1  UNL     1     -33.281   2.409   5.540  1.00 20.00     0.012 C 
HETATM    2  C2  UNL     1     -33.012   3.374   4.879  1.00 20.00    -0.117 C 
HETATM    3  C10 UNL     1     -32.676   4.553   4.072  1.00 20.00     0.098 C 
ENDROOT
BRANCH   3   4
HETATM    4  C8  UNL     1     -33.920   5.135   3.397  1.00 20.00     0.008 C 
HETATM    5  C6  UNL     1     -34.953   5.593   4.429  1.00 20.00     0.006 C 
HETATM    6  C4  UNL     1     -34.478   6.978   4.847  1.00 20.00     0.001 C 
HETATM    7  C5  UNL     1     -33.779   7.560   3.618  1.00 20.00     0.013 C 
HETATM    8  C7  UNL     1     -33.675   6.421   2.602  1.00 20.00     0.060 C 
BRANCH   8   9
HETATM    9  C3  UNL     1     -32.356   6.474   1.860  1.00 20.00     0.127 C 
HETATM   10  C9  UNL     1     -31.729   7.831   1.691  1.00 20.00     0.091 C 
HETATM   11  O11 UNL     1     -31.823   5.457   1.419  1.00 20.00    -0.298 OA
ENDBRANCH   8   9
ENDBRANCH   3   4
TORSDOF 2
