REMARK  1 active torsions:
REMARK  status: ('A' for Active; 'I' for Inactive)
REMARK    1  A    between atoms: C2_2  and  C3_3 
ROOT
HETATM    1  C1  UNL     1     -32.052   5.996   1.574  1.00 20.00    -0.009 C 
HETATM    2  C2  UNL     1     -33.116   6.545   2.234  1.00 20.00    -0.007 C 
HETATM    3  C4  UNL     1     -32.165   9.389   0.023  1.00 20.00     0.002 C 
HETATM    4  C5  UNL     1     -31.230   8.147   0.001  1.00 20.00     0.009 C 
HETATM    5  C6  UNL     1     -33.290   9.040   1.047  1.00 20.00     0.015 C 
HETATM    6  C7  UNL     1     -32.160   7.125   0.585  1.00 20.00     0.021 C 
HETATM    7  C8  UNL     1     -32.636   7.936   1.863  1.00 20.00    -0.007 C 
HETATM    8  C10 UNL     1     -31.713   8.528   2.949  1.00 20.00     0.021 C 
ENDROOT
BRANCH   2   9
HETATM    9  C3  UNL     1     -33.913   5.951   3.297  1.00 20.00     0.152 C 
HETATM   10  C9  UNL     1     -35.052   6.759   3.879  1.00 20.00     0.096 C 
HETATM   11  O11 UNL     1     -33.664   4.816   3.723  1.00 20.00    -0.293 OA
ENDBRANCH   2   9
TORSDOF 1
