REMARK  2 active torsions:
REMARK  status: ('A' for Active; 'I' for Inactive)
REMARK    1  A    between atoms: C1_1  and  C5_5 
REMARK    2  A    between atoms: C5_5  and  C6_6 
ROOT
HETATM    1  C2  UNL     1     -32.194   5.495   0.766  1.00 20.00     0.003 C 
HETATM    2  C3  UNL     1     -31.902   5.197   2.247  1.00 20.00     0.029 C 
HETATM    3  C4  UNL     1     -33.670   5.699   1.149  1.00 20.00     0.029 C 
HETATM    4  C5  UNL     1     -33.216   5.953   2.621  1.00 20.00     0.149 C 
ENDROOT
BRANCH   4   5
HETATM    5  C1  UNL     1     -34.087   5.269   3.711  1.00 20.00     0.316 C 
HETATM    6  O7  UNL     1     -35.147   5.703   4.137  1.00 20.00    -0.259 OA
HETATM    7  F8  UNL     1     -33.666   4.092   4.195  1.00 20.00    -0.163 F 
ENDBRANCH   4   5
BRANCH   4   8
HETATM    8  C6  UNL     1     -32.997   7.433   2.945  1.00 20.00     0.404 C 
HETATM    9  F9  UNL     1     -32.374   7.554   4.125  1.00 20.00    -0.170 F 
HETATM   10  F10 UNL     1     -32.244   8.001   1.992  1.00 20.00    -0.170 F 
HETATM   11  F11 UNL     1     -34.177   8.066   3.006  1.00 20.00    -0.170 F 
ENDBRANCH   4   8
TORSDOF 2
