REMARK  0 active torsions:
REMARK  status: ('A' for Active; 'I' for Inactive)
ROOT
HETATM    1  C1  UNL     1     -33.569   3.153   4.552  1.00 20.00     0.015 C 
HETATM    2  C2  UNL     1     -33.774   4.278   4.188  1.00 20.00    -0.073 C 
HETATM    3  C3  UNL     1     -33.156   6.659   4.500  1.00 20.00     0.225 C 
HETATM    4  C4  UNL     1     -33.416   7.386   2.341  1.00 20.00     0.442 C 
HETATM    5  C5  UNL     1     -34.025   5.660   3.740  1.00 20.00     0.240 C 
HETATM    6  C6  UNL     1     -35.522   5.964   3.951  1.00 20.00     0.066 C 
HETATM    7  C7  UNL     1     -32.487   5.230   1.844  1.00 20.00     0.315 C 
HETATM    8  N8  UNL     1     -33.678   5.938   2.325  1.00 20.00     0.130 N 
HETATM    9  O9  UNL     1     -33.053   7.815   3.659  1.00 20.00    -0.359 OA
ENDROOT
TORSDOF 0
