REMARK  1 active torsions:
REMARK  status: ('A' for Active; 'I' for Inactive)
REMARK    1  A    between atoms: C1_1  and  C3_3 
ROOT
HETATM    1  C1  UNL     1     -32.567   8.170   2.017  1.00 20.00    -0.054 C 
HETATM    2  C2  UNL     1     -32.322   9.022   1.208  1.00 20.00     0.007 C 
HETATM    3 CL8  UNL     1     -31.964  10.268   0.027  1.00 20.00    -0.023 Cl
ENDROOT
BRANCH   1   4
HETATM    4  C3  UNL     1     -32.858   7.154   2.980  1.00 20.00     0.236 A 
HETATM    5  C4  UNL     1     -34.285   6.770   3.323  1.00 20.00     0.092 A 
HETATM    6  C5  UNL     1     -34.538   5.434   3.950  1.00 20.00     0.049 C 
HETATM    7  C6  UNL     1     -35.457   7.423   2.654  1.00 20.00     0.049 C 
HETATM    8  O7  UNL     1     -33.523   7.660   4.149  1.00 20.00    -0.357 OA
ENDBRANCH   1   4
TORSDOF 1
