REMARK  1 active torsions:
REMARK  status: ('A' for Active; 'I' for Inactive)
REMARK    1  A    between atoms: C2_2  and  C3_3 
ROOT
HETATM    1  C1  UNL     1     -32.864   7.482   2.580  1.00 20.00    -0.007 C 
HETATM    2  C2  UNL     1     -33.379   6.250   2.601  1.00 20.00    -0.012 C 
HETATM    3  C4  UNL     1     -32.386   6.485   0.473  1.00 20.00     0.022 C 
HETATM    4  C5  UNL     1     -33.014   5.431   1.408  1.00 20.00     0.019 C 
HETATM    5  C6  UNL     1     -32.040   7.719   1.344  1.00 20.00    -0.029 C 
HETATM    6  C8  UNL     1     -32.050   4.298   1.742  1.00 20.00     0.015 C 
HETATM    7  C9  UNL     1     -30.548   7.767   1.693  1.00 20.00     0.019 C 
HETATM    8  C10 UNL     1     -32.451   9.017   0.643  1.00 20.00     0.019 C 
ENDROOT
BRANCH   2   9
HETATM    9  C3  UNL     1     -34.224   5.777   3.684  1.00 20.00     0.151 C 
HETATM   10  C7  UNL     1     -35.081   6.783   4.423  1.00 20.00     0.096 C 
HETATM   11  O11 UNL     1     -34.242   4.581   4.006  1.00 20.00    -0.293 OA
ENDBRANCH   2   9
TORSDOF 1
