REMARK  0 active torsions:
REMARK  status: ('A' for Active; 'I' for Inactive)
ROOT
HETATM    1  C1  UNL     1     -32.594   9.095  -0.308  1.00 20.00     0.015 C 
HETATM    2  C2  UNL     1     -32.310   8.635   0.764  1.00 20.00    -0.075 C 
HETATM    3  C3  UNL     1     -35.169   6.578   3.533  1.00 20.00     0.001 C 
HETATM    4  C4  UNL     1     -34.027   5.570   3.274  1.00 20.00     0.005 C 
HETATM    5  C5  UNL     1     -34.634   7.951   3.069  1.00 20.00     0.009 C 
HETATM    6  C6  UNL     1     -31.622   6.543   2.122  1.00 20.00     0.060 C 
HETATM    7  C7  UNL     1     -33.151   6.328   2.302  1.00 20.00    -0.003 C 
HETATM    8  C8  UNL     1     -33.137   7.713   3.020  1.00 20.00     0.040 C 
HETATM    9  C9  UNL     1     -31.969   8.082   2.053  1.00 20.00     0.162 C 
HETATM   10  O10 UNL     1     -30.986   8.872   2.670  1.00 20.00    -0.214 OA
ENDROOT
TORSDOF 0
