REMARK  1 active torsions:
REMARK  status: ('A' for Active; 'I' for Inactive)
REMARK    1  A    between atoms: C1_1  and  C4_4 
ROOT
HETATM    1  C1  UNL     1     -33.711   5.100   3.732  1.00 20.00    -0.068 C 
HETATM    2  C2  UNL     1     -33.506   4.000   4.169  1.00 20.00    -0.108 C 
HETATM    3  C6  UNL     1     -33.255   2.662   4.701  1.00 20.00     0.112 C 
ENDROOT
BRANCH   1   4
HETATM    4  C4  UNL     1     -33.958   6.429   3.203  1.00 20.00     0.129 C 
HETATM    5  C5  UNL     1     -32.995   6.910   2.054  1.00 20.00     0.016 C 
HETATM    6  C3  UNL     1     -34.315   7.173   1.297  1.00 20.00     0.182 C 
HETATM    7  C8  UNL     1     -32.147   5.835   1.364  1.00 20.00     0.021 C 
HETATM    8  C9  UNL     1     -32.162   8.161   2.316  1.00 20.00     0.021 C 
HETATM    9  O10 UNL     1     -35.062   6.373   2.250  1.00 20.00    -0.366 OA
HETATM   10  C7  UNL     1     -34.307   7.399   4.330  1.00 20.00     0.061 C 
ENDBRANCH   1   4
TORSDOF 1
