REMARK  0 active torsions:
REMARK  status: ('A' for Active; 'I' for Inactive)
ROOT
HETATM    1  C1  UNL     1     -32.368   9.051   0.280  1.00 20.00     0.015 C 
HETATM    2  C2  UNL     1     -32.398   8.486   1.338  1.00 20.00    -0.076 C 
HETATM    3  C3  UNL     1     -33.051   8.719   3.693  1.00 20.00     0.057 C 
HETATM    4  C4  UNL     1     -33.597   7.765   4.741  1.00 20.00     0.044 C 
HETATM    5  C5  UNL     1     -32.437   7.791   2.640  1.00 20.00     0.218 C 
HETATM    6  C6  UNL     1     -34.034   6.522   3.944  1.00 20.00     0.154 C 
HETATM    7  C7  UNL     1     -31.009   7.377   3.036  1.00 20.00     0.064 C 
HETATM    8  C8  UNL     1     -33.665   5.250   4.725  1.00 20.00     0.049 C 
HETATM    9  C9  UNL     1     -35.558   6.547   3.729  1.00 20.00     0.049 C 
HETATM   10  C10 UNL     1     -32.993   5.470   1.929  1.00 20.00     0.313 C 
HETATM   11  N11 UNL     1     -33.406   6.682   2.615  1.00 20.00     0.114 N 
ENDROOT
TORSDOF 0
