REMARK  0 active torsions:
REMARK  status: ('A' for Active; 'I' for Inactive)
ROOT
HETATM    1  C1  UNL     1     -33.472   5.205   2.314  1.00 20.00     0.047 A 
HETATM    2  C2  UNL     1     -32.489   5.663   1.518  1.00 20.00     0.052 A 
HETATM    3  C3  UNL     1     -34.010   6.043   3.363  1.00 20.00     0.153 A 
HETATM    4  C4  UNL     1     -33.549   7.287   3.570  1.00 20.00     0.167 A 
HETATM    5  C5  UNL     1     -32.468   7.887   2.768  1.00 20.00     0.262 A 
HETATM    6  C6  UNL     1     -31.895   7.006   1.657  1.00 20.00     0.258 A 
HETATM    7  O7  UNL     1     -32.618   8.213   1.379  1.00 20.00    -0.327 OA
HETATM    8  F8  UNL     1     -35.000   5.543   4.129  1.00 20.00    -0.203 F 
HETATM    9  F9  UNL     1     -34.099   8.024   4.561  1.00 20.00    -0.204 F 
HETATM   10  F10 UNL     1     -30.517   7.073   1.486  1.00 20.00    -0.203 F 
ENDROOT
TORSDOF 0
