REMARK  1 active torsions:
REMARK  status: ('A' for Active; 'I' for Inactive)
REMARK    1  A    between atoms: C2_2  and  C7_7 
ROOT
HETATM    1  C1  UNL     1     -32.284   8.766   0.769  1.00 20.00     0.132 C 
HETATM    2  C3  UNL     1     -31.021   8.383   1.516  1.00 20.00     0.084 C 
HETATM    3  C4  UNL     1     -33.148   6.510   0.604  1.00 20.00     0.013 C 
HETATM    4  C5  UNL     1     -31.897   6.026   1.366  1.00 20.00     0.007 C 
HETATM    5  C6  UNL     1     -33.424   7.880   1.237  1.00 20.00     0.068 C 
HETATM    6  C7  UNL     1     -32.987   7.709   2.694  1.00 20.00     0.088 C 
HETATM    7  C8  UNL     1     -31.588   7.196   2.330  1.00 20.00     0.006 C 
HETATM    8  O9  UNL     1     -32.361   9.624  -0.095  1.00 20.00    -0.298 OA
ENDROOT
BRANCH   6   9
HETATM    9  C2  UNL     1     -33.818   6.751   3.488  1.00 20.00     0.224 C 
HETATM   10  O10 UNL     1     -34.026   5.604   3.103  1.00 20.00    -0.279 OA
HETATM   11 CL11 UNL     1     -34.413   7.464   4.957  1.00 20.00    -0.043 Cl
ENDBRANCH   6   9
TORSDOF 1
