REMARK  3 active torsions:
REMARK  status: ('A' for Active; 'I' for Inactive)
REMARK    1  A    between atoms: C8_8  and  C9_9 
REMARK    2  A    between atoms: C9_9  and  C10_10 
REMARK    3  A    between atoms: C10_10  and  O11_11 
ROOT
HETATM    1  C1  UNL     1     -35.852   5.424   4.482  1.00 20.00     0.017 C 
HETATM    2  C2  UNL     1     -34.955   6.041   3.976  1.00 20.00    -0.083 C 
HETATM    3  C3  UNL     1     -33.418   6.375   2.178  1.00 20.00    -0.010 C 
HETATM    4  C4  UNL     1     -33.891   6.773   3.372  1.00 20.00    -0.009 C 
HETATM    5  C5  UNL     1     -32.308   7.074   1.445  1.00 20.00     0.033 C 
HETATM    6  C6  UNL     1     -33.319   7.962   4.102  1.00 20.00     0.048 C 
HETATM    7  C7  UNL     1     -31.985   8.450   3.527  1.00 20.00     0.010 C 
HETATM    8  C8  UNL     1     -31.975   8.472   1.994  1.00 20.00    -0.009 C 
ENDROOT
BRANCH   8   9
HETATM    9  C9  UNL     1     -32.927   9.536   1.436  1.00 20.00     0.031 C 
BRANCH   9  10
HETATM   10  C10 UNL     1     -32.555   9.929   0.019  1.00 20.00     0.164 C 
BRANCH  10  11
HETATM   11  O11 UNL     1     -33.464  10.926  -0.428  1.00 20.00    -0.401 OA
HETATM   12  H25 UNL     1     -33.203  11.158  -1.334  1.00 20.00     0.209 HD
ENDBRANCH  10  11
ENDBRANCH   9  10
ENDBRANCH   8   9
TORSDOF 3
