REMARK  1 active torsions:
REMARK  status: ('A' for Active; 'I' for Inactive)
REMARK    1  A    between atoms: C3_3  and  C6_6 
ROOT
HETATM    1  C1  UNL     1     -32.494   7.921   2.229  1.00 20.00     0.005 C 
HETATM    2  C2  UNL     1     -32.737   6.617   2.012  1.00 20.00     0.040 C 
HETATM    3  C4  UNL     1     -33.258   8.729   3.228  1.00 20.00     0.033 C 
HETATM    4  C5  UNL     1     -34.063   7.825   4.155  1.00 20.00     0.049 C 
HETATM    5  C6  UNL     1     -34.701   6.665   3.383  1.00 20.00     0.116 C 
HETATM    6  C7  UNL     1     -31.942   5.803   1.041  1.00 20.00     0.076 C 
HETATM    7  C8  UNL     1     -35.838   7.101   2.458  1.00 20.00     0.054 C 
HETATM    8  O10 UNL     1     -33.735   5.901   2.645  1.00 20.00    -0.338 OA
ENDROOT
BRANCH   5   9
HETATM    9  C3  UNL     1     -35.228   5.649   4.355  1.00 20.00     0.269 C 
HETATM   10  O9  UNL     1     -34.848   4.483   4.388  1.00 20.00    -0.304 OA
ENDBRANCH   5   9
TORSDOF 1
