REMARK  1 active torsions:
REMARK  status: ('A' for Active; 'I' for Inactive)
REMARK    1  A    between atoms: C4_4  and  C5_5 
ROOT
HETATM    1  C1  UNL     1     -33.411   8.037   1.043  1.00 20.00    -0.021 C 
HETATM    2  C2  UNL     1     -32.343   8.841   0.966  1.00 20.00    -0.025 C 
HETATM    3  C3  UNL     1     -33.236   7.876   4.183  1.00 20.00    -0.015 C 
HETATM    4  C4  UNL     1     -33.591   6.938   3.286  1.00 20.00    -0.009 C 
HETATM    5  C6  UNL     1     -32.303   9.043   3.982  1.00 20.00     0.028 C 
HETATM    6  C7  UNL     1     -31.029   8.867   3.135  1.00 20.00     0.012 C 
HETATM    7  C8  UNL     1     -31.579   6.785   1.794  1.00 20.00     0.022 C 
HETATM    8  C9  UNL     1     -33.109   6.812   1.865  1.00 20.00     0.045 C 
HETATM    9  C10 UNL     1     -31.186   8.265   1.732  1.00 20.00     0.009 C 
ENDROOT
BRANCH   4  10
HETATM   10  C5  UNL     1     -34.551   5.931   3.761  1.00 20.00     0.152 C 
HETATM   11  C11 UNL     1     -34.124   4.488   3.743  1.00 20.00     0.096 C 
HETATM   12  O12 UNL     1     -35.667   6.270   4.150  1.00 20.00    -0.293 OA
ENDBRANCH   4  10
TORSDOF 1
