REMARK  1 active torsions:
REMARK  status: ('A' for Active; 'I' for Inactive)
REMARK    1  A    between atoms: C2_2  and  C4_4 
ROOT
HETATM    1  C1  UNL     1     -32.336   7.972   0.994  1.00 20.00     0.131 C 
HETATM    2  C3  UNL     1     -32.425   5.934   1.739  1.00 20.00     0.191 C 
HETATM    3  C4  UNL     1     -32.510   6.904   2.899  1.00 20.00     0.219 C 
HETATM    4  C5  UNL     1     -32.268   9.205   0.170  1.00 20.00     0.099 C 
HETATM    5  N7  UNL     1     -32.468   6.771   0.531  1.00 20.00    -0.268 NA
HETATM    6  O9  UNL     1     -32.263   8.176   2.328  1.00 20.00    -0.323 OA
ENDROOT
BRANCH   3   7
HETATM    7  C2  UNL     1     -33.875   6.957   3.508  1.00 20.00     0.153 C 
HETATM    8  C6  UNL     1     -34.097   7.987   4.582  1.00 20.00     0.093 C 
HETATM    9  O8  UNL     1     -34.772   6.197   3.147  1.00 20.00    -0.295 OA
ENDBRANCH   3   7
TORSDOF 1
