REMARK  2 active torsions:
REMARK  status: ('A' for Active; 'I' for Inactive)
REMARK    1  A    between atoms: C4_4  and  C5_5 
REMARK    2  A    between atoms: C5_5  and  C8_8 
ROOT
HETATM    1  C1  UNL     1     -31.780   9.552  -0.036  1.00 20.00    -0.027 A 
HETATM    2  C2  UNL     1     -31.356   8.306   0.223  1.00 20.00    -0.026 A 
HETATM    3  C3  UNL     1     -33.344   9.436   1.936  1.00 20.00    -0.012 A 
HETATM    4  C4  UNL     1     -32.914   8.190   2.188  1.00 20.00    -0.003 A 
HETATM    5  C6  UNL     1     -32.818  10.255   0.791  1.00 20.00     0.054 A 
HETATM    6  C7  UNL     1     -31.875   7.484   1.368  1.00 20.00     0.069 A 
ENDROOT
BRANCH   4   7
HETATM    7  C5  UNL     1     -33.497   7.484   3.331  1.00 20.00     0.261 C 
HETATM    8  O9  UNL     1     -33.394   7.936   4.472  1.00 20.00    -0.283 OA
BRANCH   7   9
HETATM    9  C8  UNL     1     -34.218   6.195   3.050  1.00 20.00     0.455 C 
HETATM   10  F10 UNL     1     -34.214   5.879   1.730  1.00 20.00    -0.163 F 
HETATM   11  F11 UNL     1     -35.518   6.250   3.437  1.00 20.00    -0.163 F 
HETATM   12  F12 UNL     1     -33.655   5.149   3.705  1.00 20.00    -0.163 F 
ENDBRANCH   7   9
ENDBRANCH   4   7
TORSDOF 2
