REMARK  1 active torsions:
REMARK  status: ('A' for Active; 'I' for Inactive)
REMARK    1  A    between atoms: C3_3  and  C7_7 
ROOT
HETATM    1  C1  UNL     1     -31.324   6.605   1.071  1.00 20.00    -0.020 C 
HETATM    2  C2  UNL     1     -31.958   5.485   1.461  1.00 20.00    -0.086 C 
HETATM    3  C4  UNL     1     -33.100   5.511   2.446  1.00 20.00     0.045 C 
HETATM    4  C5  UNL     1     -32.544   7.944   2.835  1.00 20.00     0.020 C 
HETATM    5  C6  UNL     1     -31.650   7.984   1.584  1.00 20.00     0.005 C 
HETATM    6  C7  UNL     1     -33.666   6.913   2.703  1.00 20.00     0.059 C 
HETATM    7  C8  UNL     1     -31.565   4.133   0.944  1.00 20.00     0.043 C 
HETATM    8  C10 UNL     1     -32.280   8.817   0.466  1.00 20.00     0.014 C 
ENDROOT
BRANCH   6   9
HETATM    9  C3  UNL     1     -34.509   6.905   3.945  1.00 20.00     0.127 C 
HETATM   10  C9  UNL     1     -35.677   5.957   3.963  1.00 20.00     0.091 C 
HETATM   11  O11 UNL     1     -34.256   7.636   4.901  1.00 20.00    -0.298 OA
ENDBRANCH   6   9
TORSDOF 1
