REMARK  1 active torsions:
REMARK  status: ('A' for Active; 'I' for Inactive)
REMARK    1  A    between atoms: C5_5  and  C10_10 
ROOT
HETATM    1  C1  UNL     1     -33.086   5.450   1.740  1.00 20.00     0.003 C 
HETATM    2  C2  UNL     1     -32.468   5.850   0.618  1.00 20.00    -0.025 C 
HETATM    3  C3  UNL     1     -34.098   6.211   3.893  1.00 20.00    -0.019 C 
HETATM    4  C4  UNL     1     -33.630   6.411   2.657  1.00 20.00    -0.057 C 
HETATM    5  C6  UNL     1     -32.259   7.299   0.258  1.00 20.00     0.039 C 
HETATM    6  C7  UNL     1     -34.501   7.504   4.529  1.00 20.00     0.028 C 
HETATM    7  C8  UNL     1     -33.832   8.545   3.624  1.00 20.00     0.014 C 
HETATM    8  C9  UNL     1     -33.698   7.860   2.259  1.00 20.00     0.029 C 
HETATM    9  C10 UNL     1     -32.464   8.261   1.447  1.00 20.00     0.059 C 
ENDROOT
BRANCH   9  10
HETATM   10  C5  UNL     1     -32.610   9.659   0.927  1.00 20.00     0.236 C 
HETATM   11  O11 UNL     1     -32.108  10.045  -0.124  1.00 20.00    -0.306 OA
ENDBRANCH   9  10
TORSDOF 1
