REMARK  1 active torsions:
REMARK  status: ('A' for Active; 'I' for Inactive)
REMARK    1  A    between atoms: C4_4  and  C6_6 
ROOT
HETATM    1  C1  UNL     1     -35.724   6.190   4.156  1.00 20.00     0.009 A 
HETATM    2  C2  UNL     1     -35.350   4.980   4.581  1.00 20.00     0.082 A 
HETATM    3  C3  UNL     1     -34.895   6.944   3.261  1.00 20.00     0.037 A 
HETATM    4  C4  UNL     1     -33.737   6.408   2.860  1.00 20.00     0.079 A 
HETATM    5  C5  UNL     1     -34.070   4.392   4.135  1.00 20.00     0.288 A 
HETATM    6  O10 UNL     1     -33.723   3.281   4.523  1.00 20.00    -0.260 OA
HETATM    7  O11 UNL     1     -33.300   5.137   3.280  1.00 20.00    -0.276 OA
ENDROOT
BRANCH   4   8
HETATM    8  C6  UNL     1     -32.812   7.082   1.948  1.00 20.00     0.039 C 
HETATM    9  C7  UNL     1     -32.224   8.266   2.188  1.00 20.00    -0.085 C 
HETATM   10  C8  UNL     1     -31.270   8.988   1.278  1.00 20.00     0.043 C 
HETATM   11  C9  UNL     1     -32.508   8.994   3.478  1.00 20.00     0.043 C 
ENDBRANCH   4   8
TORSDOF 1
