REMARK  2 active torsions:
REMARK  status: ('A' for Active; 'I' for Inactive)
REMARK    1  A    between atoms: C1_1  and  C8_8 
REMARK    2  A    between atoms: C3_3  and  C9_9 
ROOT
HETATM    1  C4  UNL     1     -32.428   7.817   3.837  1.00 20.00     0.009 C 
HETATM    2  C5  UNL     1     -31.932   6.501   1.718  1.00 20.00     0.009 C 
HETATM    3  C6  UNL     1     -33.875   7.322   3.807  1.00 20.00     0.012 C 
HETATM    4  C7  UNL     1     -33.375   5.991   1.698  1.00 20.00     0.012 C 
HETATM    5  C8  UNL     1     -31.752   7.813   2.471  1.00 20.00     0.008 C 
HETATM    6  C9  UNL     1     -34.053   6.004   3.062  1.00 20.00     0.047 C 
ENDROOT
BRANCH   5   7
HETATM    7  C1  UNL     1     -32.299   8.962   1.641  1.00 20.00    -0.026 C 
HETATM    8  C2  UNL     1     -32.350   8.957   0.301  1.00 20.00    -0.035 C 
HETATM    9  C10 UNL     1     -32.889  10.085  -0.515  1.00 20.00     0.036 C 
ENDBRANCH   5   7
BRANCH   6  10
HETATM   10  C3  UNL     1     -33.513   4.876   3.925  1.00 20.00     0.235 C 
HETATM   11  O11 UNL     1     -33.982   3.743   3.929  1.00 20.00    -0.306 OA
ENDBRANCH   6  10
TORSDOF 2
