REMARK  3 active torsions:
REMARK  status: ('A' for Active; 'I' for Inactive)
REMARK    1  A    between atoms: C1_1  and  C7_7 
REMARK    2  A    between atoms: C1_1  and  N8_8 
REMARK    3  A    between atoms: C6_6  and  N8_8 
ROOT
HETATM    1  C1  UNL     1     -33.053   6.411   2.497  1.00 20.00     0.078 C 
HETATM    2  S9  UNL     1     -32.234   5.292   1.516  1.00 20.00    -0.065 SA
ENDROOT
BRANCH   1   3
HETATM    3  C7  UNL     1     -32.644   7.908   2.444  1.00 20.00     0.039 C 
HETATM    4  C3  UNL     1     -31.546   8.205   3.469  1.00 20.00     0.017 C 
HETATM    5  C4  UNL     1     -32.227   8.400   1.054  1.00 20.00     0.017 C 
ENDBRANCH   1   3
BRANCH   1   6
HETATM    6  N8  UNL     1     -34.067   6.062   3.407  1.00 20.00    -0.380 N 
HETATM    7  C5  UNL     1     -34.731   7.029   4.281  1.00 20.00     0.150 C 
BRANCH   6   8
HETATM    8  C6  UNL     1     -34.546   4.687   3.577  1.00 20.00     0.118 C 
HETATM    9  C2  UNL     1     -33.745   3.961   4.604  1.00 20.00     0.026 C 
ENDBRANCH   6   8
ENDBRANCH   1   6
TORSDOF 3
