REMARK  1 active torsions:
REMARK  status: ('A' for Active; 'I' for Inactive)
REMARK    1  A    between atoms: C3_3  and  C7_7 
ROOT
HETATM    1  C1  UNL     1     -32.401   8.272   1.310  1.00 20.00     0.218 C 
HETATM    2  C4  UNL     1     -31.297   7.237   1.352  1.00 20.00     0.103 C 
HETATM    3  C5  UNL     1     -31.885   5.839   1.207  1.00 20.00     0.012 C 
HETATM    4  C6  UNL     1     -32.982   5.538   2.234  1.00 20.00     0.029 C 
HETATM    5  C7  UNL     1     -33.479   6.786   2.963  1.00 20.00     0.106 C 
HETATM    6  N8  UNL     1     -33.495   7.942   2.089  1.00 20.00    -0.353 N 
HETATM    7  O9  UNL     1     -32.306   9.311   0.662  1.00 20.00    -0.274 OA
HETATM    8  H20 UNL     1     -34.299   8.505   2.048  1.00 20.00     0.163 HD
ENDROOT
BRANCH   5   9
HETATM    9  C3  UNL     1     -34.854   6.470   3.510  1.00 20.00    -0.012 C 
HETATM   10  C2  UNL     1     -35.115   5.452   4.338  1.00 20.00     0.009 C 
ENDBRANCH   5   9
TORSDOF 1
