REMARK  3 active torsions:
REMARK  status: ('A' for Active; 'I' for Inactive)
REMARK    1  A    between atoms: C7_7  and  C8_8 
REMARK    2  A    between atoms: C8_8  and  N10_10 
REMARK    3  A    between atoms: C9_9  and  N10_10 
ROOT
HETATM    1  C1  UNL     1     -32.055   8.470   1.182  1.00 20.00     0.015 C 
HETATM    2  C2  UNL     1     -32.721   7.927   2.021  1.00 20.00    -0.076 C 
HETATM    3  C4  UNL     1     -33.257   7.891   4.420  1.00 20.00     0.063 C 
HETATM    4  C5  UNL     1     -35.027   7.407   2.710  1.00 20.00     0.063 C 
HETATM    5  C9  UNL     1     -33.541   7.260   3.053  1.00 20.00     0.213 C 
ENDROOT
BRANCH   5   6
HETATM    6  N10 UNL     1     -33.198   5.852   3.091  1.00 20.00     0.104 N 
HETATM    7  C6  UNL     1     -32.993   5.326   1.737  1.00 20.00     0.312 C 
BRANCH   6   8
HETATM    8  C8  UNL     1     -34.238   5.077   3.777  1.00 20.00     0.273 C 
BRANCH   8   9
HETATM    9  C7  UNL     1     -33.867   3.606   3.920  1.00 20.00     0.026 C 
HETATM   10  C3  UNL     1     -32.599   3.396   4.735  1.00 20.00     0.007 C 
ENDBRANCH   8   9
ENDBRANCH   6   8
ENDBRANCH   5   6
TORSDOF 3
