REMARK  0 active torsions:
REMARK  status: ('A' for Active; 'I' for Inactive)
ROOT
HETATM    1  C1  UNL     1     -31.501   4.107   0.202  1.00 20.00     0.015 C 
HETATM    2  C2  UNL     1     -32.207   4.769   0.911  1.00 20.00    -0.076 C 
HETATM    3  C3  UNL     1     -34.322   5.446   3.940  1.00 20.00     0.004 C 
HETATM    4  C4  UNL     1     -34.542   6.950   3.833  1.00 20.00     0.003 C 
HETATM    5  C5  UNL     1     -34.091   4.824   2.565  1.00 20.00     0.055 C 
HETATM    6  C6  UNL     1     -33.285   7.650   3.323  1.00 20.00     0.042 C 
HETATM    7  C7  UNL     1     -33.052   5.560   1.759  1.00 20.00     0.154 A 
HETATM    8  C8  UNL     1     -32.677   7.000   2.108  1.00 20.00     0.102 A 
HETATM    9  C9  UNL     1     -31.401   7.616   1.614  1.00 20.00     0.050 C 
HETATM   10  O10 UNL     1     -33.604   6.700   1.064  1.00 20.00    -0.350 OA
ENDROOT
TORSDOF 0
