REMARK  0 active torsions:
REMARK  status: ('A' for Active; 'I' for Inactive)
ROOT
HETATM    1  C1  UNL     1     -32.359   7.799   1.595  1.00 20.00     0.100 C 
HETATM    2  C2  UNL     1     -31.785   5.432   1.378  1.00 20.00     0.042 A 
HETATM    3  C3  UNL     1     -32.006   4.109   1.760  1.00 20.00     0.118 A 
HETATM    4  C4  UNL     1     -32.567   6.432   1.950  1.00 20.00     0.054 A 
HETATM    5  C5  UNL     1     -33.532   6.056   2.862  1.00 20.00    -0.013 A 
HETATM    6  C6  UNL     1     -33.674   4.710   3.180  1.00 20.00     0.042 A 
HETATM    7  C7  UNL     1     -34.477   6.904   3.645  1.00 20.00     0.042 C 
HETATM    8  C8  UNL     1     -34.735   4.521   4.226  1.00 20.00     0.060 C 
HETATM    9  C9  UNL     1     -35.495   5.851   4.115  1.00 20.00     0.011 C 
HETATM   10  N10 UNL     1     -32.190   8.911   1.306  1.00 20.00    -0.191 NA
HETATM   11  N11 UNL     1     -32.938   3.714   2.661  1.00 20.00    -0.265 NA
ENDROOT
TORSDOF 0
