REMARK  1 active torsions:
REMARK  status: ('A' for Active; 'I' for Inactive)
REMARK    1  A    between atoms: C3_3  and  C7_7 
ROOT
HETATM    1  C1  UNL     1     -31.716   7.377   1.634  1.00 20.00    -0.030 C 
HETATM    2  C2  UNL     1     -32.604   8.117   2.314  1.00 20.00    -0.026 C 
HETATM    3  C4  UNL     1     -31.668   5.880   1.692  1.00 20.00     0.027 C 
HETATM    4  C5  UNL     1     -32.546   5.282   2.795  1.00 20.00     0.018 C 
HETATM    5  C6  UNL     1     -33.675   7.529   3.202  1.00 20.00     0.016 C 
HETATM    6  C7  UNL     1     -33.879   6.026   2.901  1.00 20.00     0.080 C 
HETATM    7  C8  UNL     1     -33.322   7.833   4.663  1.00 20.00     0.015 C 
ENDROOT
BRANCH   6   8
HETATM    8  C3  UNL     1     -34.773   5.366   3.907  1.00 20.00     0.223 C 
HETATM    9  O9  UNL     1     -35.630   5.996   4.519  1.00 20.00    -0.279 OA
HETATM   10 CL10 UNL     1     -34.436   3.669   4.068  1.00 20.00    -0.043 Cl
ENDBRANCH   6   8
TORSDOF 1
