REMARK  2 active torsions:
REMARK  status: ('A' for Active; 'I' for Inactive)
REMARK    1  A    between atoms: C3_3  and  C6_6 
REMARK    2  A    between atoms: C3_3  and  O10_10 
ROOT
HETATM    1  C1  UNL     1     -32.919   9.241   2.434  1.00 20.00    -0.010 C 
HETATM    2  C2  UNL     1     -32.672   9.602   1.169  1.00 20.00    -0.087 C 
HETATM    3  C4  UNL     1     -31.885   8.559   0.440  1.00 20.00     0.034 C 
HETATM    4  C5  UNL     1     -31.426   7.622   1.562  1.00 20.00     0.023 C 
HETATM    5  C6  UNL     1     -32.338   7.906   2.757  1.00 20.00     0.108 C 
HETATM    6  C7  UNL     1     -33.114  10.848   0.491  1.00 20.00     0.043 C 
ENDROOT
BRANCH   5   7
HETATM    7  C3  UNL     1     -33.461   6.923   2.857  1.00 20.00     0.266 C 
HETATM    8  O9  UNL     1     -33.589   5.951   2.124  1.00 20.00    -0.265 OA
BRANCH   7   9
HETATM    9  O10 UNL     1     -34.294   7.284   3.875  1.00 20.00    -0.326 OA
HETATM   10  C8  UNL     1     -35.419   6.425   4.083  1.00 20.00     0.213 C 
ENDBRANCH   7   9
ENDBRANCH   5   7
TORSDOF 2
