REMARK  3 active torsions:
REMARK  status: ('A' for Active; 'I' for Inactive)
REMARK    1  A    between atoms: C1_1  and  C10_10 
REMARK    2  A    between atoms: C7_7  and  C8_8 
REMARK    3  A    between atoms: C9_9  and  C10_10 
ROOT
HETATM    1  C2  UNL     1     -35.944   7.095   2.783  1.00 20.00     0.006 C 
HETATM    2  C3  UNL     1     -34.403   7.917   4.561  1.00 20.00     0.006 C 
HETATM    3  C4  UNL     1     -34.767   7.056   1.782  1.00 20.00     0.019 C 
HETATM    4  C5  UNL     1     -33.227   7.874   3.566  1.00 20.00     0.019 C 
HETATM    5  C7  UNL     1     -35.429   6.819   4.217  1.00 20.00    -0.010 C 
HETATM    6  C10 UNL     1     -33.445   6.745   2.532  1.00 20.00     0.040 C 
ENDROOT
BRANCH   6   7
HETATM    7  C1  UNL     1     -32.288   6.718   1.579  1.00 20.00     0.228 C 
HETATM    8  O11 UNL     1     -31.599   5.714   1.430  1.00 20.00    -0.279 OA
HETATM    9 CL12 UNL     1     -32.078   8.237   0.762  1.00 20.00    -0.043 Cl
ENDBRANCH   6   7
BRANCH   6  10
HETATM   10  C9  UNL     1     -33.636   5.396   3.217  1.00 20.00     0.007 A 
HETATM   11  C6  UNL     1     -33.390   5.119   4.680  1.00 20.00     0.011 A 
HETATM   12  C8  UNL     1     -34.782   5.444   4.197  1.00 20.00    -0.005 A 
ENDBRANCH   6  10
TORSDOF 3
