REMARK  1 active torsions:
REMARK  status: ('A' for Active; 'I' for Inactive)
REMARK    1  A    between atoms: C1_1  and  N7_7 
ROOT
HETATM    1  C2  UNL     1     -33.305   7.677   3.997  1.00 20.00     0.159 C 
HETATM    2  C3  UNL     1     -34.150   6.418   4.007  1.00 20.00     0.138 C 
HETATM    3  C4  UNL     1     -33.076   6.521   1.944  1.00 20.00     0.221 C 
HETATM    4  C5  UNL     1     -35.631   6.693   3.780  1.00 20.00     0.041 C 
HETATM    5  C6  UNL     1     -31.754   5.941   1.469  1.00 20.00     0.063 C 
HETATM    6  N7  UNL     1     -32.932   7.794   2.613  1.00 20.00    -0.330 N 
HETATM    7  O9  UNL     1     -33.644   5.623   2.916  1.00 20.00    -0.360 OA
ENDROOT
BRANCH   6   8
HETATM    8  C1  UNL     1     -32.576   8.973   2.004  1.00 20.00     0.352 C 
HETATM    9  O8  UNL     1     -32.735   9.276   0.827  1.00 20.00    -0.283 OA
ENDBRANCH   6   8
TORSDOF 1
