REMARK  0 active torsions:
REMARK  status: ('A' for Active; 'I' for Inactive)
ROOT
HETATM    1  C1  UNL     1     -32.471   9.841   0.132  1.00 20.00     0.017 C 
HETATM    2  C2  UNL     1     -32.184   8.916   0.840  1.00 20.00    -0.057 C 
HETATM    3  C3  UNL     1     -31.835   7.787   1.704  1.00 20.00     0.342 C 
HETATM    4  C4  UNL     1     -33.471   6.314   2.269  1.00 20.00     0.150 C 
HETATM    5  C5  UNL     1     -32.310   5.573   1.638  1.00 20.00     0.150 C 
HETATM    6  C6  UNL     1     -34.079   5.619   3.470  1.00 20.00     0.042 C 
HETATM    7  C7  UNL     1     -32.717   4.456   0.698  1.00 20.00     0.042 C 
HETATM    8  O8  UNL     1     -32.877   7.556   2.666  1.00 20.00    -0.343 OA
HETATM    9  O9  UNL     1     -31.635   6.607   0.913  1.00 20.00    -0.343 OA
ENDROOT
TORSDOF 0
