REMARK  0 active torsions:
REMARK  status: ('A' for Active; 'I' for Inactive)
ROOT
HETATM    1  C1  UNL     1     -32.381   7.296   1.685  1.00 20.00    -0.056 A 
HETATM    2  C2  UNL     1     -33.606   5.677   2.806  1.00 20.00     0.087 A 
HETATM    3  C3  UNL     1     -31.524   7.950   0.891  1.00 20.00     0.017 C 
HETATM    4  C4  UNL     1     -33.350   7.984   2.632  1.00 20.00     0.158 A 
HETATM    5  C5  UNL     1     -35.050   6.704   4.227  1.00 20.00     0.144 A 
HETATM    6  C6  UNL     1     -35.195   5.160   4.313  1.00 20.00     0.141 A 
HETATM    7  C7  UNL     1     -32.549   5.771   1.794  1.00 20.00     0.035 A 
HETATM    8  C8  UNL     1     -31.271   5.094   2.295  1.00 20.00     0.028 C 
HETATM    9  C9  UNL     1     -33.019   5.157   0.474  1.00 20.00     0.028 C 
HETATM   10  N10 UNL     1     -34.012   6.846   3.230  1.00 20.00    -0.365 N 
HETATM   11  N11 UNL     1     -34.202   4.641   3.346  1.00 20.00    -0.377 N 
HETATM   12  H26 UNL     1     -33.965   3.690   3.091  1.00 20.00     0.160 HD
ENDROOT
TORSDOF 0
