REMARK  1 active torsions:
REMARK  status: ('A' for Active; 'I' for Inactive)
REMARK    1  A    between atoms: C1_1  and  C7_7 
ROOT
HETATM    1  C1  UNL     1     -33.353   5.234   3.365  1.00 20.00    -0.057 C 
HETATM    2  C2  UNL     1     -33.600   4.198   3.918  1.00 20.00     0.276 C 
HETATM    3  O10 UNL     1     -33.842   3.182   4.459  1.00 20.00    -0.274 OA
ENDROOT
BRANCH   1   4
HETATM    4  C7  UNL     1     -33.084   6.360   2.765  1.00 20.00     0.023 A 
HETATM    5  C5  UNL     1     -32.349   6.323   1.502  1.00 20.00     0.021 A 
HETATM    6  C3  UNL     1     -32.057   7.469   0.861  1.00 20.00     0.002 A 
HETATM    7  C4  UNL     1     -32.456   8.760   1.392  1.00 20.00     0.001 A 
HETATM    8  C6  UNL     1     -33.135   8.871   2.548  1.00 20.00     0.012 A 
HETATM    9  C8  UNL     1     -33.495   7.671   3.315  1.00 20.00    -0.027 A 
HETATM   10  C9  UNL     1     -34.173   7.813   4.468  1.00 20.00     0.025 C 
ENDBRANCH   1   4
TORSDOF 1
