REMARK  1 active torsions:
REMARK  status: ('A' for Active; 'I' for Inactive)
REMARK    1  A    between atoms: C5_5  and  C6_6 
ROOT
HETATM    1  C1  UNL     1     -34.411   7.312   4.222  1.00 20.00    -0.003 A 
HETATM    2  C2  UNL     1     -34.456   6.048   3.520  1.00 20.00    -0.003 A 
HETATM    3  C3  UNL     1     -33.560   8.123   3.568  1.00 20.00    -0.012 A 
HETATM    4  C4  UNL     1     -33.631   6.130   2.460  1.00 20.00    -0.012 A 
HETATM    5  C6  UNL     1     -32.745   8.138   1.075  1.00 20.00     0.073 A 
HETATM    6  C7  UNL     1     -32.976   7.452   2.391  1.00 20.00     0.013 A 
HETATM    7  C8  UNL     1     -31.558   7.664   1.913  1.00 20.00    -0.021 A 
HETATM    8  C9  UNL     1     -30.768   6.489   1.382  1.00 20.00     0.017 C 
HETATM    9  C10 UNL     1     -30.683   8.678   2.616  1.00 20.00     0.017 C 
ENDROOT
BRANCH   5  10
HETATM   10  C5  UNL     1     -33.020   9.572   0.903  1.00 20.00     0.237 C 
HETATM   11  O11 UNL     1     -32.467  10.270   0.059  1.00 20.00    -0.306 OA
ENDBRANCH   5  10
TORSDOF 1
