REMARK  3 active torsions:
REMARK  status: ('A' for Active; 'I' for Inactive)
REMARK    1  A    between atoms: C3_3  and  C8_8 
REMARK    2  A    between atoms: C6_6  and  C9_9 
REMARK    3  A    between atoms: C7_7  and  C10_10 
ROOT
HETATM    1  C5  UNL     1     -34.706   7.765   4.100  1.00 20.00     0.019 C 
HETATM    2  C8  UNL     1     -35.108   6.365   3.427  1.00 20.00     0.078 C 
HETATM    3  C9  UNL     1     -33.338   7.545   3.388  1.00 20.00    -0.001 C 
HETATM    4  C10 UNL     1     -34.256   6.912   2.246  1.00 20.00     0.010 C 
ENDROOT
BRANCH   2   5
HETATM    5  C3  UNL     1     -34.684   5.060   4.111  1.00 20.00     0.223 C 
HETATM    6  O11 UNL     1     -35.187   4.694   5.169  1.00 20.00    -0.279 OA
HETATM    7 CL12 UNL     1     -33.453   4.221   3.216  1.00 20.00    -0.043 Cl
ENDBRANCH   2   5
BRANCH   4   8
HETATM    8  C7  UNL     1     -33.258   6.719   1.105  1.00 20.00     0.014 C 
HETATM    9  C2  UNL     1     -31.996   6.029   1.550  1.00 20.00    -0.025 C 
HETATM   10  C1  UNL     1     -31.307   6.892   2.316  1.00 20.00    -0.025 C 
HETATM   11  C6  UNL     1     -32.196   8.116   2.515  1.00 20.00     0.013 C 
HETATM   12  C4  UNL     1     -32.730   8.178   1.083  1.00 20.00     0.017 C 
ENDBRANCH   4   8
TORSDOF 3
