REMARK  0 active torsions:
REMARK  status: ('A' for Active; 'I' for Inactive)
ROOT
HETATM    1  C1  UNL     1     -31.984   5.300   1.618  1.00 20.00     0.012 A 
HETATM    2  C2  UNL     1     -33.602   7.855   4.079  1.00 20.00     0.006 A 
HETATM    3  C3  UNL     1     -31.479   7.632   1.329  1.00 20.00     0.101 C 
HETATM    4  C4  UNL     1     -31.998   6.347   0.790  1.00 20.00     0.016 A 
HETATM    5  C5  UNL     1     -33.180   7.786   2.806  1.00 20.00     0.035 A 
HETATM    6  C6  UNL     1     -34.529   5.467   4.302  1.00 20.00     0.015 A 
HETATM    7  C7  UNL     1     -33.272   5.790   1.231  1.00 20.00     0.017 A 
HETATM    8  C8  UNL     1     -34.732   6.955   4.368  1.00 20.00     0.015 A 
HETATM    9  C9  UNL     1     -34.059   6.793   2.031  1.00 20.00     0.048 A 
HETATM   10  C10 UNL     1     -34.994   6.203   3.072  1.00 20.00     0.004 A 
HETATM   11  N11 UNL     1     -32.041   8.333   2.271  1.00 20.00    -0.269 NA
ENDROOT
TORSDOF 0
