REMARK  2 active torsions:
REMARK  status: ('A' for Active; 'I' for Inactive)
REMARK    1  A    between atoms: C4_4  and  C6_6 
REMARK    2  A    between atoms: C7_7  and  O10_10 
ROOT
HETATM    1  C1  UNL     1     -32.669  10.060   0.407  1.00 20.00     0.218 C 
HETATM    2  C4  UNL     1     -32.945   8.814   0.655  1.00 20.00     0.043 C 
HETATM    3  O9  UNL     1     -32.420  11.188   0.183  1.00 20.00    -0.284 OA
ENDROOT
BRANCH   2   4
HETATM    4  C6  UNL     1     -32.695   8.125   1.958  1.00 20.00     0.064 C 
HETATM    5  C3  UNL     1     -31.346   7.471   1.995  1.00 20.00    -0.020 C 
HETATM    6  C2  UNL     1     -31.426   6.137   1.954  1.00 20.00    -0.027 C 
HETATM    7  C5  UNL     1     -32.840   5.666   1.872  1.00 20.00     0.059 C 
HETATM    8  C7  UNL     1     -33.641   6.931   2.196  1.00 20.00     0.135 C 
BRANCH   8   9
HETATM    9  O10 UNL     1     -34.018   6.892   3.574  1.00 20.00    -0.389 OA
HETATM   10  C8  UNL     1     -35.150   6.060   3.773  1.00 20.00     0.202 C 
ENDBRANCH   8   9
ENDBRANCH   2   4
TORSDOF 2
