REMARK  1 active torsions:
REMARK  status: ('A' for Active; 'I' for Inactive)
REMARK    1  A    between atoms: C3_3  and  C4_4 
ROOT
HETATM    1  C1  UNL     1     -33.093   7.648   3.094  1.00 20.00    -0.018 A 
HETATM    2  C2  UNL     1     -33.490   6.431   2.682  1.00 20.00    -0.025 A 
HETATM    3  C4  UNL     1     -32.107   7.830   1.956  1.00 20.00     0.084 A 
HETATM    4  C5  UNL     1     -32.637   6.466   1.428  1.00 20.00     0.018 A 
HETATM    5  C7  UNL     1     -31.605   5.356   1.298  1.00 20.00     0.015 C 
ENDROOT
BRANCH   3   6
HETATM    6  C3  UNL     1     -32.420   9.100   1.159  1.00 20.00     0.131 C 
HETATM    7  C6  UNL     1     -32.243   9.023  -0.334  1.00 20.00     0.091 C 
HETATM    8  O8  UNL     1     -32.799  10.132   1.711  1.00 20.00    -0.298 OA
ENDBRANCH   3   6
TORSDOF 1
