REMARK  1 active torsions:
REMARK  status: ('A' for Active; 'I' for Inactive)
REMARK    1  A    between atoms: C3_3  and  C8_8 
ROOT
HETATM    1  C1  UNL     1     -32.463   8.292   0.901  1.00 20.00    -0.025 C 
HETATM    2  C2  UNL     1     -32.922   7.141   0.388  1.00 20.00    -0.024 C 
HETATM    3  C4  UNL     1     -31.602   6.593   2.191  1.00 20.00     0.018 C 
HETATM    4  C5  UNL     1     -32.108   8.030   2.347  1.00 20.00     0.013 C 
HETATM    5  C6  UNL     1     -32.886   6.112   1.496  1.00 20.00     0.024 C 
HETATM    6  C7  UNL     1     -33.438   7.833   3.135  1.00 20.00     0.005 C 
HETATM    7  C8  UNL     1     -33.965   6.454   2.573  1.00 20.00     0.027 C 
HETATM    8  C10 UNL     1     -33.211   7.889   4.644  1.00 20.00     0.012 C 
HETATM    9  C11 UNL     1     -35.384   6.569   2.006  1.00 20.00     0.024 C 
ENDROOT
BRANCH   7  10
HETATM   10  C3  UNL     1     -34.005   5.355   3.609  1.00 20.00     0.132 C 
HETATM   11  C9  UNL     1     -34.996   5.517   4.730  1.00 20.00     0.091 C 
HETATM   12  O12 UNL     1     -33.266   4.374   3.538  1.00 20.00    -0.298 OA
ENDBRANCH   7  10
TORSDOF 1
