REMARK  1 active torsions:
REMARK  status: ('A' for Active; 'I' for Inactive)
REMARK    1  A    between atoms: C3_3  and  C7_7 
ROOT
HETATM    1  C1  UNL     1     -31.899   8.102   3.239  1.00 20.00    -0.023 C 
HETATM    2  C2  UNL     1     -31.583   7.861   1.956  1.00 20.00    -0.015 C 
HETATM    3  C4  UNL     1     -33.891   7.925   2.074  1.00 20.00     0.029 C 
HETATM    4  C5  UNL     1     -33.319   7.628   3.470  1.00 20.00     0.029 C 
HETATM    5  C6  UNL     1     -32.779   7.247   1.276  1.00 20.00     0.071 C 
HETATM    6  C7  UNL     1     -33.320   6.091   3.602  1.00 20.00     0.116 C 
HETATM    7  S9  UNL     1     -32.930   5.525   1.893  1.00 20.00    -0.148 SA
ENDROOT
BRANCH   6   8
HETATM    8  C3  UNL     1     -34.652   5.539   3.988  1.00 20.00     0.246 C 
HETATM    9  O8  UNL     1     -35.612   6.240   4.290  1.00 20.00    -0.306 OA
ENDBRANCH   6   8
TORSDOF 1
