REMARK  1 active torsions:
REMARK  status: ('A' for Active; 'I' for Inactive)
REMARK    1  A    between atoms: C1_1  and  C3_3 
ROOT
HETATM    1  C1  UNL     1     -32.605   7.024   2.104  1.00 20.00    -0.010 C 
HETATM    2  C2  UNL     1     -33.491   6.931   3.109  1.00 20.00    -0.066 C 
HETATM    3  C4  UNL     1     -32.124   5.826   1.326  1.00 20.00     0.042 C 
HETATM    4  C5  UNL     1     -34.194   8.013   3.870  1.00 20.00     0.035 C 
HETATM    5  C6  UNL     1     -32.596   4.476   1.882  1.00 20.00     0.005 C 
HETATM    6  C7  UNL     1     -35.614   7.465   3.922  1.00 20.00     0.005 C 
HETATM    7  C8  UNL     1     -34.018   4.554   2.438  1.00 20.00     0.009 C 
HETATM    8  C9  UNL     1     -35.477   5.947   4.038  1.00 20.00     0.009 C 
HETATM    9  C10 UNL     1     -34.069   5.606   3.544  1.00 20.00     0.015 C 
ENDROOT
BRANCH   1  10
HETATM   10  C3  UNL     1     -32.081   8.328   1.681  1.00 20.00     0.152 C 
HETATM   11  C11 UNL     1     -33.063   9.359   1.189  1.00 20.00     0.096 C 
HETATM   12  O12 UNL     1     -30.872   8.560   1.723  1.00 20.00    -0.293 OA
ENDBRANCH   1  10
TORSDOF 1
