REMARK  0 active torsions:
REMARK  status: ('A' for Active; 'I' for Inactive)
ROOT
HETATM    1  C1  UNL     1     -32.690  10.153   0.196  1.00 20.00     0.013 C 
HETATM    2  C2  UNL     1     -32.439   9.165   0.831  1.00 20.00    -0.104 C 
HETATM    3  C3  UNL     1     -33.649   6.836   3.299  1.00 20.00     0.048 C 
HETATM    4  C4  UNL     1     -33.026   7.925   2.830  1.00 20.00    -0.001 C 
HETATM    5  C5  UNL     1     -33.440   5.517   2.656  1.00 20.00     0.149 C 
HETATM    6  C6  UNL     1     -32.447   5.416   1.521  1.00 20.00     0.085 C 
HETATM    7  C7  UNL     1     -32.387   6.713   0.724  1.00 20.00     0.034 C 
HETATM    8  C8  UNL     1     -32.131   7.948   1.613  1.00 20.00     0.037 C 
HETATM    9  C9  UNL     1     -30.664   8.010   2.067  1.00 20.00     0.034 C 
HETATM   10  O10 UNL     1     -34.025   4.527   3.092  1.00 20.00    -0.293 OA
ENDROOT
TORSDOF 0
