REMARK  1 active torsions:
REMARK  status: ('A' for Active; 'I' for Inactive)
REMARK    1  A    between atoms: C1_1  and  C3_3 
ROOT
HETATM    1  C2  UNL     1     -35.395   6.372   3.460  1.00 20.00     0.103 A 
HETATM    2  C3  UNL     1     -33.939   6.755   3.564  1.00 20.00     0.073 A 
HETATM    3  C5  UNL     1     -33.583   7.889   4.488  1.00 20.00     0.036 C 
HETATM    4  S7  UNL     1     -34.418   5.269   4.345  1.00 20.00    -0.149 SA
ENDROOT
BRANCH   2   5
HETATM    5  C1  UNL     1     -33.096   6.555   2.368  1.00 20.00     0.142 C 
HETATM    6  C4  UNL     1     -32.436   7.779   1.792  1.00 20.00     0.092 C 
HETATM    7  O6  UNL     1     -32.939   5.442   1.868  1.00 20.00    -0.297 OA
ENDBRANCH   2   5
TORSDOF 1
