REMARK  1 active torsions:
REMARK  status: ('A' for Active; 'I' for Inactive)
REMARK    1  A    between atoms: C5_5  and  C9_9 
ROOT
HETATM    1  C1  UNL     1     -31.403   6.727   1.860  1.00 20.00    -0.021 C 
HETATM    2  C2  UNL     1     -32.220   5.782   1.367  1.00 20.00    -0.024 C 
HETATM    3  C3  UNL     1     -33.131   7.497   3.438  1.00 20.00    -0.065 C 
HETATM    4  C4  UNL     1     -33.076   8.043   4.657  1.00 20.00     0.016 C 
HETATM    5  C6  UNL     1     -33.313   7.791   1.134  1.00 20.00     0.023 C 
HETATM    6  C7  UNL     1     -32.268   7.902   2.250  1.00 20.00     0.038 C 
HETATM    7  C8  UNL     1     -33.640   6.322   1.448  1.00 20.00     0.028 C 
HETATM    8  C9  UNL     1     -34.098   6.414   2.940  1.00 20.00     0.046 C 
HETATM    9  C11 UNL     1     -35.570   6.812   3.077  1.00 20.00     0.029 C 
ENDROOT
BRANCH   8  10
HETATM   10  C5  UNL     1     -33.871   5.117   3.678  1.00 20.00     0.136 C 
HETATM   11  C10 UNL     1     -32.790   5.115   4.725  1.00 20.00     0.092 C 
HETATM   12  O12 UNL     1     -34.539   4.112   3.438  1.00 20.00    -0.297 OA
ENDBRANCH   8  10
TORSDOF 1
