REMARK  1 active torsions:
REMARK  status: ('A' for Active; 'I' for Inactive)
REMARK    1  A    between atoms: C1_1  and  C5_5 
ROOT
HETATM    1  C2  UNL     1     -32.824   5.328   1.637  1.00 20.00     0.015 C 
HETATM    2  C3  UNL     1     -31.559   6.185   1.629  1.00 20.00     0.026 C 
HETATM    3  C4  UNL     1     -33.140   7.378   2.953  1.00 20.00     0.038 C 
HETATM    4  C5  UNL     1     -33.806   6.049   2.570  1.00 20.00     0.074 C 
HETATM    5  C6  UNL     1     -32.067   7.605   1.884  1.00 20.00     0.034 C 
HETATM    6  C7  UNL     1     -32.640   8.255   0.621  1.00 20.00     0.032 C 
HETATM    7 CL10 UNL     1     -30.754   8.642   2.507  1.00 20.00    -0.120 Cl
ENDROOT
BRANCH   4   8
HETATM    8  C1  UNL     1     -34.114   5.229   3.785  1.00 20.00     0.223 C 
HETATM    9  O8  UNL     1     -33.632   4.112   3.949  1.00 20.00    -0.279 OA
HETATM   10 CL9  UNL     1     -35.196   6.048   4.870  1.00 20.00    -0.043 Cl
ENDBRANCH   4   8
TORSDOF 1
