REMARK  1 active torsions:
REMARK  status: ('A' for Active; 'I' for Inactive)
REMARK    1  A    between atoms: C1_1  and  C5_5 
ROOT
HETATM    1  C2  UNL     1     -32.840   7.882   3.404  1.00 20.00     0.026 C 
HETATM    2  C3  UNL     1     -33.920   7.298   1.667  1.00 20.00     0.026 C 
HETATM    3  C4  UNL     1     -32.172   6.232   2.241  1.00 20.00     0.026 C 
HETATM    4  C5  UNL     1     -33.505   6.555   2.961  1.00 20.00     0.022 C 
HETATM    5  C6  UNL     1     -32.419   7.754   1.883  1.00 20.00    -0.041 C 
HETATM    6  C8  UNL     1     -31.593   8.666   1.063  1.00 20.00     0.015 C 
ENDROOT
BRANCH   4   7
HETATM    7  C1  UNL     1     -34.338   5.641   3.786  1.00 20.00     0.131 C 
HETATM    8  C7  UNL     1     -33.835   4.232   3.953  1.00 20.00     0.091 C 
HETATM    9  O9  UNL     1     -35.386   6.018   4.308  1.00 20.00    -0.298 OA
ENDBRANCH   4   7
TORSDOF 1
