REMARK  1 active torsions:
REMARK  status: ('A' for Active; 'I' for Inactive)
REMARK    1  A    between atoms: C3_3  and  C8_8 
ROOT
HETATM    1  C1  UNL     1     -31.823   6.390   1.862  1.00 20.00    -0.024 C 
HETATM    2  C2  UNL     1     -31.407   7.630   1.558  1.00 20.00    -0.021 C 
HETATM    3  C4  UNL     1     -33.306   6.282  -0.092  1.00 20.00     0.010 C 
HETATM    4  C5  UNL     1     -32.850   7.718  -0.446  1.00 20.00     0.014 C 
HETATM    5  C6  UNL     1     -33.689   8.551   1.767  1.00 20.00     0.026 C 
HETATM    6  C7  UNL     1     -33.244   6.076   1.438  1.00 20.00     0.019 C 
HETATM    7  C8  UNL     1     -34.193   7.118   2.081  1.00 20.00     0.063 C 
HETATM    8  C9  UNL     1     -32.440   8.486   0.842  1.00 20.00    -0.026 C 
HETATM    9  C11 UNL     1     -31.914   9.880   0.516  1.00 20.00     0.019 C 
ENDROOT
BRANCH   7  10
HETATM   10  C3  UNL     1     -34.325   6.915   3.562  1.00 20.00     0.128 C 
HETATM   11  C10 UNL     1     -33.352   7.660   4.436  1.00 20.00     0.091 C 
HETATM   12  O12 UNL     1     -35.186   6.178   4.038  1.00 20.00    -0.298 OA
ENDBRANCH   7  10
TORSDOF 1
