REMARK  1 active torsions:
REMARK  status: ('A' for Active; 'I' for Inactive)
REMARK    1  A    between atoms: C1_1  and  C4_4 
ROOT
HETATM    1  C2  UNL     1     -32.803   5.338   1.284  1.00 20.00     0.014 C 
HETATM    2  C3  UNL     1     -32.545   5.290   2.797  1.00 20.00     0.012 C 
HETATM    3  C4  UNL     1     -33.349   6.770   1.465  1.00 20.00     0.064 C 
HETATM    4  C5  UNL     1     -33.850   7.219   4.083  1.00 20.00    -0.000 A 
HETATM    5  C6  UNL     1     -33.578   6.358   2.884  1.00 20.00    -0.019 A 
HETATM    6  C7  UNL     1     -34.915   6.242   3.597  1.00 20.00    -0.035 A 
HETATM    7  C9  UNL     1     -34.024   8.696   3.987  1.00 20.00     0.011 C 
HETATM    8  C10 UNL     1     -36.159   6.757   2.918  1.00 20.00     0.016 C 
HETATM    9  C11 UNL     1     -35.177   5.038   4.469  1.00 20.00     0.016 C 
ENDROOT
BRANCH   3  10
HETATM   10  C1  UNL     1     -32.363   7.932   1.283  1.00 20.00     0.128 C 
HETATM   11  C8  UNL     1     -32.789   9.043   0.362  1.00 20.00     0.091 C 
HETATM   12  O12 UNL     1     -31.278   7.955   1.863  1.00 20.00    -0.298 OA
ENDBRANCH   3  10
TORSDOF 1
