REMARK  1 active torsions:
REMARK  status: ('A' for Active; 'I' for Inactive)
REMARK    1  A    between atoms: C2_2  and  C3_3 
ROOT
HETATM    1  C1  UNL     1     -33.102   7.757   2.436  1.00 20.00    -0.007 C 
HETATM    2  C2  UNL     1     -33.194   6.423   2.426  1.00 20.00    -0.012 C 
HETATM    3  C4  UNL     1     -31.702   6.976   0.694  1.00 20.00     0.022 C 
HETATM    4  C5  UNL     1     -32.187   5.776   1.532  1.00 20.00     0.019 C 
HETATM    5  C6  UNL     1     -31.997   8.240   1.535  1.00 20.00    -0.029 C 
HETATM    6  C8  UNL     1     -32.734   4.662   0.647  1.00 20.00     0.015 C 
HETATM    7  C9  UNL     1     -30.777   8.661   2.364  1.00 20.00     0.019 C 
HETATM    8  C10 UNL     1     -32.457   9.398   0.648  1.00 20.00     0.019 C 
ENDROOT
BRANCH   2   9
HETATM    9  C3  UNL     1     -34.148   5.715   3.264  1.00 20.00     0.151 C 
HETATM   10  C7  UNL     1     -35.450   6.402   3.615  1.00 20.00     0.096 C 
HETATM   11  O11 UNL     1     -33.904   4.577   3.689  1.00 20.00    -0.293 OA
ENDBRANCH   2   9
TORSDOF 1
