REMARK  2 active torsions:
REMARK  status: ('A' for Active; 'I' for Inactive)
REMARK    1  A    between atoms: C3_3  and  C6_6 
REMARK    2  A    between atoms: C3_3  and  O10_10 
ROOT
HETATM    1  C1  UNL     1     -31.444   7.489   1.595  1.00 20.00    -0.023 C 
HETATM    2  C2  UNL     1     -32.454   8.158   1.028  1.00 20.00    -0.087 C 
HETATM    3  C4  UNL     1     -31.888   6.187   2.175  1.00 20.00     0.042 C 
HETATM    4  C5  UNL     1     -33.748   7.411   1.139  1.00 20.00     0.048 C 
HETATM    5  C6  UNL     1     -33.416   6.276   2.114  1.00 20.00     0.093 C 
HETATM    6  C7  UNL     1     -32.378   9.467   0.330  1.00 20.00     0.043 C 
ENDROOT
BRANCH   5   7
HETATM    7  C3  UNL     1     -33.970   6.570   3.479  1.00 20.00     0.263 C 
HETATM    8  O9  UNL     1     -34.762   5.846   4.067  1.00 20.00    -0.265 OA
BRANCH   7   9
HETATM    9  O10 UNL     1     -33.455   7.746   3.936  1.00 20.00    -0.326 OA
HETATM   10  C8  UNL     1     -33.902   8.150   5.234  1.00 20.00     0.213 C 
ENDBRANCH   7   9
ENDBRANCH   5   7
TORSDOF 2
