REMARK  2 active torsions:
REMARK  status: ('A' for Active; 'I' for Inactive)
REMARK    1  A    between atoms: C3_3  and  C9_9 
REMARK    2  A    between atoms: C9_9  and  N10_10 
ROOT
HETATM    1  C1  UNL     1     -32.947   7.005   2.313  1.00 20.00     0.040 C 
HETATM    2  C4  UNL     1     -33.290   7.951   3.441  1.00 20.00     0.057 C 
HETATM    3  C5  UNL     1     -34.657   7.593   4.009  1.00 20.00     0.006 C 
HETATM    4  C6  UNL     1     -34.717   6.151   4.523  1.00 20.00     0.004 C 
HETATM    5  C7  UNL     1     -33.789   5.192   3.774  1.00 20.00     0.043 C 
HETATM    6  C8  UNL     1     -33.542   5.618   2.335  1.00 20.00     0.217 C 
HETATM    7  N10 UNL     1     -32.165   7.359   1.347  1.00 20.00    -0.292 NA
HETATM    8  F11 UNL     1     -32.703   4.715   1.757  1.00 20.00    -0.243 F 
ENDROOT
BRANCH   7   9
HETATM    9  C9  UNL     1     -31.661   8.720   1.451  1.00 20.00     0.175 C 
BRANCH   9  10
HETATM   10  C3  UNL     1     -32.633   9.664   0.820  1.00 20.00    -0.015 C 
HETATM   11  C2  UNL     1     -32.330  10.479  -0.197  1.00 20.00     0.008 C 
ENDBRANCH   9  10
ENDBRANCH   7   9
TORSDOF 2
