REMARK  3 active torsions:
REMARK  status: ('A' for Active; 'I' for Inactive)
REMARK    1  A    between atoms: C2_2  and  C6_6 
REMARK    2  A    between atoms: C3_3  and  C7_7 
REMARK    3  A    between atoms: C6_6  and  C7_7 
ROOT
HETATM    1  C7  UNL     1     -32.817   7.131   2.722  1.00 20.00     0.242 C 
HETATM    2  F9  UNL     1     -33.427   6.232   1.896  1.00 20.00    -0.241 F 
ENDROOT
BRANCH   1   3
HETATM    3  C3  UNL     1     -33.646   7.354   3.972  1.00 20.00     0.157 C 
HETATM    4  C5  UNL     1     -33.071   8.245   5.041  1.00 20.00     0.094 C 
HETATM    5  O8  UNL     1     -34.748   6.822   4.111  1.00 20.00    -0.295 OA
ENDBRANCH   1   3
BRANCH   1   6
HETATM    6  C6  UNL     1     -32.542   8.406   1.929  1.00 20.00     0.072 C 
BRANCH   6   7
HETATM    7  C2  UNL     1     -31.732   8.156   0.687  1.00 20.00    -0.028 C 
HETATM    8  C1  UNL     1     -31.841   8.883  -0.434  1.00 20.00    -0.035 C 
HETATM    9  C4  UNL     1     -32.781  10.031  -0.592  1.00 20.00     0.036 C 
ENDBRANCH   6   7
ENDBRANCH   1   6
TORSDOF 3
