REMARK  2 active torsions:
REMARK  status: ('A' for Active; 'I' for Inactive)
REMARK    1  A    between atoms: C4_4  and  C10_10 
REMARK    2  A    between atoms: C5_5  and  C10_10 
ROOT
HETATM    1  C1  UNL     1     -34.259   8.150   4.888  1.00 20.00    -0.026 C 
HETATM    2  C2  UNL     1     -32.985   7.735   4.896  1.00 20.00    -0.024 C 
HETATM    3  C6  UNL     1     -34.269   5.922   4.281  1.00 20.00     0.018 C 
HETATM    4  C7  UNL     1     -34.587   7.498   2.520  1.00 20.00     0.030 C 
HETATM    5  C8  UNL     1     -35.025   7.219   3.980  1.00 20.00     0.010 C 
HETATM    6  C9  UNL     1     -32.896   6.537   3.972  1.00 20.00     0.028 C 
HETATM    7  C10 UNL     1     -33.099   7.012   2.504  1.00 20.00     0.044 C 
ENDROOT
BRANCH   7   8
HETATM    8  C4  UNL     1     -32.859   5.925   1.501  1.00 20.00    -0.019 C 
HETATM    9  C3  UNL     1     -31.682   5.316   1.325  1.00 20.00     0.008 C 
ENDBRANCH   7   8
BRANCH   7  10
HETATM   10  C5  UNL     1     -32.146   8.104   2.108  1.00 20.00     0.136 C 
HETATM   11  C11 UNL     1     -32.312   8.680   0.728  1.00 20.00     0.092 C 
HETATM   12  O12 UNL     1     -31.274   8.509   2.875  1.00 20.00    -0.297 OA
ENDBRANCH   7  10
TORSDOF 2
