REMARK  1 active torsions:
REMARK  status: ('A' for Active; 'I' for Inactive)
REMARK    1  A    between atoms: C8_8  and  C10_10 
ROOT
HETATM    1  C1  UNL     1     -32.700   4.961   2.261  1.00 20.00     0.028 A 
HETATM    2  C2  UNL     1     -31.770   5.678   1.522  1.00 20.00     0.120 A 
HETATM    3  C3  UNL     1     -33.539   7.105   2.989  1.00 20.00     0.029 A 
HETATM    4  C4  UNL     1     -33.590   5.709   3.004  1.00 20.00    -0.034 A 
HETATM    5  C5  UNL     1     -32.582   7.731   2.226  1.00 20.00     0.220 A 
HETATM    6  C6  UNL     1     -34.579   7.641   3.844  1.00 20.00     0.013 A 
HETATM    7  C7  UNL     1     -35.250   6.601   4.365  1.00 20.00    -0.016 A 
HETATM    8  C8  UNL     1     -34.714   5.261   3.898  1.00 20.00     0.042 A 
HETATM    9  N11 UNL     1     -31.687   7.037   1.485  1.00 20.00    -0.232 NA
HETATM   10  F12 UNL     1     -32.519   9.070   2.200  1.00 20.00    -0.183 F 
ENDROOT
BRANCH   8  11
HETATM   11  C10 UNL     1     -34.245   4.393   5.058  1.00 20.00     0.009 C 
HETATM   12  C9  UNL     1     -33.656   3.102   4.585  1.00 20.00     0.006 C 
ENDBRANCH   8  11
TORSDOF 1
