REMARK  1 active torsions:
REMARK  status: ('A' for Active; 'I' for Inactive)
REMARK    1  A    between atoms: C5_5  and  C8_8 
ROOT
HETATM    1  C1  UNL     1     -31.642   7.801   1.814  1.00 20.00    -0.004 C 
HETATM    2  C2  UNL     1     -31.620   6.648   0.913  1.00 20.00    -0.004 C 
HETATM    3  C3  UNL     1     -32.419   8.045   2.892  1.00 20.00    -0.026 C 
HETATM    4  C4  UNL     1     -32.082   5.415   1.200  1.00 20.00    -0.021 C 
HETATM    5  C6  UNL     1     -33.519   7.186   3.502  1.00 20.00     0.033 C 
HETATM    6  C7  UNL     1     -32.704   5.096   2.482  1.00 20.00     0.028 A 
HETATM    7  C8  UNL     1     -34.042   4.547   2.846  1.00 20.00     0.100 A 
HETATM    8  C9  UNL     1     -33.903   6.032   2.641  1.00 20.00     0.012 A 
ENDROOT
BRANCH   7   9
HETATM    9  C5  UNL     1     -34.253   4.083   4.203  1.00 20.00     0.178 C 
HETATM   10  O10 UNL     1     -35.226   4.612   4.809  1.00 20.00    -0.648 OA
HETATM   11  O11 UNL     1     -33.431   3.209   4.597  1.00 20.00    -0.648 OA
ENDBRANCH   7   9
TORSDOF 1
