REMARK  2 active torsions:
REMARK  status: ('A' for Active; 'I' for Inactive)
REMARK    1  A    between atoms: C3_3  and  C6_6 
REMARK    2  A    between atoms: C7_7  and  O11_11 
ROOT
HETATM    1  C1  UNL     1     -31.996   7.403   0.872  1.00 20.00    -0.023 C 
HETATM    2  C2  UNL     1     -32.642   8.522   1.236  1.00 20.00    -0.085 C 
HETATM    3  C4  UNL     1     -32.258   6.056   1.476  1.00 20.00     0.042 C 
HETATM    4  C5  UNL     1     -33.688   8.519   2.322  1.00 20.00     0.071 C 
HETATM    5  C6  UNL     1     -33.526   6.003   2.341  1.00 20.00     0.084 C 
HETATM    6  C7  UNL     1     -33.682   7.262   3.223  1.00 20.00     0.068 C 
HETATM    7  C8  UNL     1     -32.371   9.844   0.581  1.00 20.00     0.043 C 
HETATM    8  C9  UNL     1     -32.601   7.381   4.308  1.00 20.00     0.047 C 
ENDROOT
BRANCH   6   9
HETATM    9  O11 UNL     1     -34.961   7.234   3.870  1.00 20.00    -0.389 OA
HETATM   10  H25 UNL     1     -35.019   8.056   4.374  1.00 20.00     0.210 HD
ENDBRANCH   6   9
BRANCH   5  11
HETATM   11  C3  UNL     1     -33.529   4.727   3.140  1.00 20.00     0.238 C 
HETATM   12  O10 UNL     1     -34.131   4.595   4.201  1.00 20.00    -0.306 OA
ENDBRANCH   5  11
TORSDOF 2
