REMARK  1 active torsions:
REMARK  status: ('A' for Active; 'I' for Inactive)
REMARK    1  A    between atoms: C7_7  and  C10_10 
ROOT
HETATM    1  C1  UNL     1     -31.956   9.465  -0.013  1.00 20.00     0.015 C 
HETATM    2  C2  UNL     1     -32.486   8.569   0.585  1.00 20.00    -0.085 C 
HETATM    3  C3  UNL     1     -32.719   5.337   2.532  1.00 20.00    -0.018 C 
HETATM    4  C4  UNL     1     -33.770   5.627   3.319  1.00 20.00    -0.059 C 
HETATM    5  C5  UNL     1     -32.151   6.330   1.566  1.00 20.00     0.072 C 
HETATM    6  C6  UNL     1     -33.135   7.474   1.317  1.00 20.00     0.203 C 
HETATM    7  C7  UNL     1     -34.404   7.008   3.285  1.00 20.00     0.151 C 
HETATM    8  C8  UNL     1     -34.380   4.590   4.216  1.00 20.00     0.046 C 
HETATM    9  O11 UNL     1     -33.589   7.963   2.580  1.00 20.00    -0.364 OA
ENDROOT
BRANCH   7  10
HETATM   10  C10 UNL     1     -34.630   7.600   4.674  1.00 20.00     0.032 C 
HETATM   11  C9  UNL     1     -33.353   7.716   5.439  1.00 20.00     0.008 C 
ENDBRANCH   7  10
TORSDOF 1
