REMARK  0 active torsions:
REMARK  status: ('A' for Active; 'I' for Inactive)
ROOT
HETATM    1  C1  UNL     1     -32.490  10.138  -0.511  1.00 20.00     0.014 C 
HETATM    2  C2  UNL     1     -32.865   9.384   0.344  1.00 20.00    -0.081 C 
HETATM    3  C3  UNL     1     -31.854   5.916   1.258  1.00 20.00     0.035 C 
HETATM    4  C4  UNL     1     -33.584   6.137   3.026  1.00 20.00     0.035 C 
HETATM    5  C5  UNL     1     -33.936   7.175   0.789  1.00 20.00     0.053 C 
HETATM    6  C6  UNL     1     -31.234   7.243   1.722  1.00 20.00     0.274 C 
HETATM    7  C7  UNL     1     -32.838   7.397   3.496  1.00 20.00     0.274 C 
HETATM    8  C8  UNL     1     -33.325   8.458   1.395  1.00 20.00     0.300 C 
HETATM    9  C9  UNL     1     -33.367   5.945   1.516  1.00 20.00    -0.008 C 
HETATM   10  N10 UNL     1     -32.237   8.131   2.356  1.00 20.00     0.104 N 
ENDROOT
TORSDOF 0
