REMARK  2 active torsions:
REMARK  status: ('A' for Active; 'I' for Inactive)
REMARK    1  A    between atoms: C1_1  and  C10_10 
REMARK    2  A    between atoms: C1_1  and  C11_11 
ROOT
HETATM    1  C2  UNL     1     -34.301   5.220   3.980  1.00 20.00     0.009 C 
HETATM    2  C3  UNL     1     -35.486   6.961   2.590  1.00 20.00     0.010 C 
HETATM    3  C4  UNL     1     -34.088   5.261   1.466  1.00 20.00     0.010 C 
HETATM    4  C5  UNL     1     -33.644   7.655   3.839  1.00 20.00     0.022 C 
HETATM    5  C6  UNL     1     -32.244   5.953   2.712  1.00 20.00     0.022 C 
HETATM    6  C7  UNL     1     -34.826   6.687   3.943  1.00 20.00    -0.013 C 
HETATM    7  C8  UNL     1     -33.368   4.915   2.770  1.00 20.00    -0.013 C 
HETATM    8  C9  UNL     1     -34.292   6.774   1.640  1.00 20.00     0.002 C 
HETATM    9  C10 UNL     1     -33.054   7.237   2.487  1.00 20.00     0.026 C 
ENDROOT
BRANCH   9  10
HETATM   10  C1  UNL     1     -32.251   8.312   1.832  1.00 20.00     0.149 C 
HETATM   11  O12 UNL     1     -31.062   8.136   1.572  1.00 20.00    -0.296 OA
BRANCH  10  12
HETATM   12  C11 UNL     1     -32.993   9.593   1.527  1.00 20.00     0.193 C 
HETATM   13 CL13 UNL     1     -32.303  10.394   0.108  1.00 20.00    -0.123 Cl
ENDBRANCH  10  12
ENDBRANCH   9  10
TORSDOF 2
