REMARK  1 active torsions:
REMARK  status: ('A' for Active; 'I' for Inactive)
REMARK    1  A    between atoms: C3_3  and  C4_4 
ROOT
HETATM    1  C1  UNL     1     -32.989   7.624   4.183  1.00 20.00     0.061 C 
HETATM    2  C2  UNL     1     -32.238   8.378   3.377  1.00 20.00     0.087 C 
HETATM    3  C4  UNL     1     -33.438   6.397   3.464  1.00 20.00     0.376 C 
HETATM    4  C5  UNL     1     -32.108   7.727   2.045  1.00 20.00     0.463 C 
HETATM    5  C6  UNL     1     -32.628   5.430   1.349  1.00 20.00     0.324 C 
HETATM    6  N7  UNL     1     -33.079   6.620   2.051  1.00 20.00     0.211 N 
HETATM    7  F9  UNL     1     -32.828   5.294   3.975  1.00 20.00    -0.195 F 
HETATM    8  F10 UNL     1     -32.395   8.583   1.033  1.00 20.00    -0.169 F 
HETATM    9  F11 UNL     1     -30.837   7.289   1.848  1.00 20.00    -0.169 F 
ENDROOT
BRANCH   3  10
HETATM   10  C3  UNL     1     -34.924   6.297   3.554  1.00 20.00     0.312 C 
HETATM   11  O8  UNL     1     -35.507   5.351   4.073  1.00 20.00    -0.301 OA
ENDBRANCH   3  10
TORSDOF 1
