REMARK  5 active torsions:
REMARK  status: ('A' for Active; 'I' for Inactive)
REMARK    1  A    between atoms: C1_1  and  C7_7 
REMARK    2  A    between atoms: C2_2  and  C9_9 
REMARK    3  A    between atoms: C4_4  and  C8_8 
REMARK    4  A    between atoms: C8_8  and  C9_9 
REMARK    5  A    between atoms: C9_9  and  O10_10 
ROOT
HETATM    1  C9  UNL     1     -32.353   5.640   2.051  1.00 20.00     0.200 C 
ENDROOT
BRANCH   1   2
HETATM    2  C2  UNL     1     -32.155   7.031   1.615  1.00 20.00    -0.074 C 
HETATM    3  C1  UNL     1     -31.992   8.167   1.262  1.00 20.00    -0.099 C 
BRANCH   3   4
HETATM    4  C7  UNL     1     -31.797   9.529   0.837  1.00 20.00     0.065 A 
HETATM    5  C5  UNL     1     -33.000  10.418   0.700  1.00 20.00     0.018 A 
HETATM    6  C6  UNL     1     -32.283   9.933  -0.525  1.00 20.00     0.018 A 
ENDBRANCH   3   4
ENDBRANCH   1   2
BRANCH   1   7
HETATM    7  C8  UNL     1     -33.836   5.365   2.324  1.00 20.00     0.071 C 
BRANCH   7   8
HETATM    8  C4  UNL     1     -34.258   5.876   3.674  1.00 20.00    -0.033 C 
HETATM    9  C3  UNL     1     -35.196   6.811   3.862  1.00 20.00     0.007 C 
ENDBRANCH   7   8
ENDBRANCH   1   7
BRANCH   1  10
HETATM   10  O10 UNL     1     -31.906   4.755   1.025  1.00 20.00    -0.383 OA
HETATM   11  H22 UNL     1     -32.440   4.952   0.240  1.00 20.00     0.211 HD
ENDBRANCH   1  10
TORSDOF 5
