REMARK  1 active torsions:
REMARK  status: ('A' for Active; 'I' for Inactive)
REMARK    1  A    between atoms: C5_5  and  C7_7 
ROOT
HETATM    1  C1  UNL     1     -35.253   6.128   4.265  1.00 20.00    -0.026 A 
HETATM    2  C2  UNL     1     -34.877   7.114   3.439  1.00 20.00    -0.013 A 
HETATM    3  C3  UNL     1     -33.541   4.607   3.223  1.00 20.00    -0.019 A 
HETATM    4  C4  UNL     1     -33.152   5.586   2.385  1.00 20.00    -0.071 A 
HETATM    5  C6  UNL     1     -34.613   4.772   4.261  1.00 20.00     0.054 A 
HETATM    6  C7  UNL     1     -33.781   6.958   2.424  1.00 20.00     0.123 A 
HETATM    7  C8  UNL     1     -32.110   5.340   1.330  1.00 20.00     0.044 C 
ENDROOT
BRANCH   6   8
HETATM    8  C5  UNL     1     -32.725   7.945   2.820  1.00 20.00     0.230 C 
HETATM    9  O9  UNL     1     -32.137   7.864   3.895  1.00 20.00    -0.279 OA
HETATM   10 CL10 UNL     1     -32.470   9.156   1.601  1.00 20.00    -0.043 Cl
ENDBRANCH   6   8
TORSDOF 1
