REMARK  2 active torsions:
REMARK  status: ('A' for Active; 'I' for Inactive)
REMARK    1  A    between atoms: C1_1  and  C4_4 
REMARK    2  A    between atoms: C2_2  and  N10_10 
ROOT
HETATM    1  C5  UNL     1     -35.012   4.470   4.326  1.00 20.00     0.003 C 
HETATM    2  C6  UNL     1     -33.602   4.114   3.865  1.00 20.00     0.029 C 
HETATM    3  C7  UNL     1     -35.104   5.932   4.751  1.00 20.00     0.029 C 
HETATM    4  C8  UNL     1     -33.110   5.057   2.775  1.00 20.00     0.251 C 
HETATM    5  C9  UNL     1     -34.606   6.869   3.658  1.00 20.00     0.251 C 
HETATM    6  N10 UNL     1     -33.206   6.476   3.269  1.00 20.00    -0.006 N 
HETATM    7  H24 UNL     1     -32.607   6.565   4.102  1.00 20.00     0.297 HD
ENDROOT
BRANCH   6   8
HETATM    8  C2  UNL     1     -32.650   7.419   2.279  1.00 20.00     0.118 C 
HETATM    9  C1  UNL     1     -32.198   8.185   1.473  1.00 20.00    -0.049 C 
BRANCH   9  10
HETATM   10  C4  UNL     1     -31.657   9.091   0.523  1.00 20.00     0.056 C 
HETATM   11  C3  UNL     1     -32.344   9.474  -0.558  1.00 20.00     0.021 C 
ENDBRANCH   9  10
ENDBRANCH   6   8
TORSDOF 2
