REMARK  1 active torsions:
REMARK  status: ('A' for Active; 'I' for Inactive)
REMARK    1  A    between atoms: C1_1  and  C3_3 
ROOT
HETATM    1  C2  UNL     1     -31.554   6.926   1.572  1.00 20.00     0.056 A 
HETATM    2  C3  UNL     1     -33.017   6.909   1.863  1.00 20.00     0.067 A 
HETATM    3  C4  UNL     1     -32.220   8.141   2.158  1.00 20.00     0.122 A 
HETATM    4 CL7  UNL     1     -31.809   8.586   3.810  1.00 20.00    -0.101 Cl
HETATM    5 CL8  UNL     1     -32.475   9.532   1.105  1.00 20.00    -0.101 Cl
ENDROOT
BRANCH   2   6
HETATM    6  C1  UNL     1     -33.509   6.045   2.981  1.00 20.00     0.090 C 
HETATM    7  N6  UNL     1     -34.637   6.288   3.552  1.00 20.00    -0.310 NA
HETATM    8  C5  UNL     1     -34.957   5.348   4.622  1.00 20.00     0.176 C 
ENDBRANCH   2   6
TORSDOF 1
