REMARK  1 active torsions:
REMARK  status: ('A' for Active; 'I' for Inactive)
REMARK    1  A    between atoms: C3_3  and  C8_8 
ROOT
HETATM    1  C1  UNL     1     -33.796   7.433   3.652  1.00 20.00    -0.084 C 
HETATM    2  C2  UNL     1     -34.223   7.885   4.834  1.00 20.00     0.015 C 
HETATM    3  C4  UNL     1     -32.389   7.533   3.118  1.00 20.00     0.038 C 
HETATM    4  C5  UNL     1     -33.964   7.372   1.334  1.00 20.00     0.014 C 
HETATM    5  C6  UNL     1     -32.818   5.359   1.909  1.00 20.00     0.021 C 
HETATM    6  C7  UNL     1     -34.642   6.784   2.575  1.00 20.00     0.028 C 
HETATM    7  C8  UNL     1     -34.261   5.298   2.443  1.00 20.00     0.095 C 
HETATM    8  C9  UNL     1     -32.572   6.875   1.736  1.00 20.00    -0.009 C 
ENDROOT
BRANCH   7   9
HETATM    9  C3  UNL     1     -34.389   4.533   3.745  1.00 20.00     0.177 C 
HETATM   10  O10 UNL     1     -35.298   4.939   4.522  1.00 20.00    -0.648 OA
HETATM   11  O11 UNL     1     -33.567   3.585   3.886  1.00 20.00    -0.648 OA
ENDBRANCH   7   9
TORSDOF 1
