REMARK  2 active torsions:
REMARK  status: ('A' for Active; 'I' for Inactive)
REMARK    1  A    between atoms: C1_1  and  C6_6 
REMARK    2  A    between atoms: C1_1  and  O10_10 
ROOT
HETATM    1  C2  UNL     1     -31.156   8.607   0.873  1.00 20.00     0.006 C 
HETATM    2  C3  UNL     1     -32.516   9.297   0.699  1.00 20.00     0.036 C 
HETATM    3  C4  UNL     1     -31.489   7.195   1.380  1.00 20.00     0.052 C 
HETATM    4  C5  UNL     1     -33.410   8.632   1.699  1.00 20.00     0.168 A 
HETATM    5  C6  UNL     1     -32.795   7.340   2.108  1.00 20.00     0.174 A 
HETATM    6  O9  UNL     1     -32.868   8.459   3.011  1.00 20.00    -0.358 OA
ENDROOT
BRANCH   5   7
HETATM    7  C1  UNL     1     -33.607   6.201   2.524  1.00 20.00     0.296 C 
HETATM    8  O8  UNL     1     -33.641   5.131   1.931  1.00 20.00    -0.262 OA
BRANCH   7   9
HETATM    9  O10 UNL     1     -34.300   6.524   3.653  1.00 20.00    -0.324 OA
HETATM   10  C7  UNL     1     -35.143   5.491   4.173  1.00 20.00     0.213 C 
ENDBRANCH   7   9
ENDBRANCH   5   7
TORSDOF 2
