REMARK  1 active torsions:
REMARK  status: ('A' for Active; 'I' for Inactive)
REMARK    1  A    between atoms: C3_3  and  C7_7 
ROOT
HETATM    1  C1  UNL     1     -32.771   8.148   2.395  1.00 20.00    -0.019 C 
HETATM    2  C2  UNL     1     -32.417   7.987   1.108  1.00 20.00    -0.087 C 
HETATM    3  C4  UNL     1     -32.344   6.627   0.465  1.00 20.00     0.034 C 
HETATM    4  C5  UNL     1     -32.333   5.483   1.479  1.00 20.00     0.017 C 
HETATM    5  C6  UNL     1     -33.172   7.017   3.313  1.00 20.00     0.015 C 
HETATM    6  C7  UNL     1     -33.396   5.691   2.557  1.00 20.00     0.062 C 
HETATM    7  C8  UNL     1     -32.066   9.152   0.230  1.00 20.00     0.043 C 
HETATM    8  C10 UNL     1     -34.431   7.408   4.097  1.00 20.00     0.015 C 
ENDROOT
BRANCH   6   9
HETATM    9  C3  UNL     1     -33.347   4.537   3.514  1.00 20.00     0.127 C 
HETATM   10  C9  UNL     1     -32.066   4.349   4.282  1.00 20.00     0.091 C 
HETATM   11  O11 UNL     1     -34.307   3.783   3.667  1.00 20.00    -0.298 OA
ENDBRANCH   6   9
TORSDOF 1
