REMARK  1 active torsions:
REMARK  status: ('A' for Active; 'I' for Inactive)
REMARK    1  A    between atoms: C3_3  and  C9_9 
ROOT
HETATM    1  C1  UNL     1     -31.573   8.435   2.666  1.00 20.00    -0.067 A 
HETATM    2  C2  UNL     1     -30.299   8.444   2.995  1.00 20.00     0.016 C 
HETATM    3  C4  UNL     1     -34.420   5.378   3.672  1.00 20.00     0.000 C 
HETATM    4  C5  UNL     1     -33.173   5.242   2.795  1.00 20.00     0.001 C 
HETATM    5  C6  UNL     1     -34.762   6.828   4.024  1.00 20.00     0.001 C 
HETATM    6  C7  UNL     1     -32.962   6.467   1.910  1.00 20.00     0.015 C 
HETATM    7  C8  UNL     1     -33.517   7.708   4.085  1.00 20.00     0.015 C 
HETATM    8  C9  UNL     1     -32.615   9.124   2.015  1.00 20.00     0.096 A 
HETATM    9  C10 UNL     1     -32.797   7.720   2.750  1.00 20.00    -0.003 A 
ENDROOT
BRANCH   8  10
HETATM   10  C3  UNL     1     -32.521   9.186   0.555  1.00 20.00     0.132 C 
HETATM   11  C11 UNL     1     -32.967  10.467  -0.097  1.00 20.00     0.091 C 
HETATM   12  O12 UNL     1     -32.097   8.240  -0.106  1.00 20.00    -0.298 OA
ENDBRANCH   8  10
TORSDOF 1
