REMARK  1 active torsions:
REMARK  status: ('A' for Active; 'I' for Inactive)
REMARK    1  A    between atoms: C1_1  and  C4_4 
ROOT
HETATM    1  C2  UNL     1     -35.035   5.575   4.304  1.00 20.00     0.180 C 
HETATM    2  C3  UNL     1     -34.077   4.406   4.171  1.00 20.00     0.103 C 
HETATM    3  C4  UNL     1     -33.247   6.731   3.365  1.00 20.00     0.165 C 
HETATM    4  C6  UNL     1     -32.864   7.946   4.196  1.00 20.00     0.067 C 
HETATM    5  O8  UNL     1     -34.668   6.576   3.345  1.00 20.00    -0.362 OA
HETATM    6  S9  UNL     1     -32.482   5.220   4.003  1.00 20.00    -0.122 SA
ENDROOT
BRANCH   3   7
HETATM    7  C1  UNL     1     -32.828   6.899   1.939  1.00 20.00     0.167 C 
HETATM    8  C5  UNL     1     -32.131   8.185   1.585  1.00 20.00     0.095 C 
HETATM    9  O7  UNL     1     -33.042   6.029   1.097  1.00 20.00    -0.294 OA
ENDBRANCH   3   7
TORSDOF 1
