REMARK  1 active torsions:
REMARK  status: ('A' for Active; 'I' for Inactive)
REMARK    1  A    between atoms: C8_8  and  O11_11 
ROOT
HETATM    1  C1  UNL     1     -31.377   7.765   2.164  1.00 20.00    -0.023 C 
HETATM    2  C2  UNL     1     -32.016   6.796   1.488  1.00 20.00    -0.022 C 
HETATM    3  C3  UNL     1     -35.235   6.341   3.520  1.00 20.00     0.011 A 
HETATM    4  C4  UNL     1     -34.048   5.434   3.690  1.00 20.00     0.011 A 
HETATM    5  C5  UNL     1     -33.152   7.928   3.905  1.00 20.00     0.021 C 
HETATM    6  C6  UNL     1     -32.429   8.688   2.751  1.00 20.00     0.038 C 
HETATM    7  C7  UNL     1     -33.503   7.047   1.654  1.00 20.00     0.046 C 
HETATM    8  C8  UNL     1     -33.495   8.591   1.645  1.00 20.00     0.136 C 
HETATM    9  C9  UNL     1     -33.863   6.815   3.119  1.00 20.00    -0.030 A 
ENDROOT
BRANCH   8  10
HETATM   10  O11 UNL     1     -33.099   9.169   0.417  1.00 20.00    -0.389 OA
HETATM   11  C10 UNL     1     -32.806  10.556   0.556  1.00 20.00     0.202 C 
ENDBRANCH   8  10
TORSDOF 1
