REMARK  0 active torsions:
REMARK  status: ('A' for Active; 'I' for Inactive)
ROOT
HETATM    1  C1  UNL     1     -32.717   9.839  -0.349  1.00 20.00     0.012 C 
HETATM    2  C2  UNL     1     -33.045   8.878   0.291  1.00 20.00    -0.111 C 
HETATM    3  C3  UNL     1     -33.831   6.515   3.013  1.00 20.00     0.132 C 
HETATM    4  C4  UNL     1     -33.091   5.568   2.089  1.00 20.00     0.084 C 
HETATM    5  C5  UNL     1     -32.105   8.212   3.029  1.00 20.00     0.014 C 
HETATM    6  C6  UNL     1     -31.282   7.319   2.077  1.00 20.00     0.007 C 
HETATM    7  C7  UNL     1     -33.446   7.704   1.071  1.00 20.00     0.080 C 
HETATM    8  C8  UNL     1     -33.550   7.944   2.582  1.00 20.00     0.071 C 
HETATM    9  C9  UNL     1     -32.364   6.621   1.217  1.00 20.00     0.009 C 
HETATM   10  O10 UNL     1     -34.513   6.182   3.968  1.00 20.00    -0.298 OA
ENDROOT
TORSDOF 0
