REMARK  1 active torsions:
REMARK  status: ('A' for Active; 'I' for Inactive)
REMARK    1  A    between atoms: C1_1  and  C7_7 
ROOT
HETATM    1  C2  UNL     1     -30.875   7.029   1.406  1.00 20.00     0.004 C 
HETATM    2  C3  UNL     1     -31.431   7.806   0.219  1.00 20.00     0.037 C 
HETATM    3  C4  UNL     1     -31.981   6.624   2.382  1.00 20.00     0.016 C 
HETATM    4  C5  UNL     1     -33.362   8.609   1.631  1.00 20.00     0.053 C 
HETATM    5  C6  UNL     1     -32.249   9.008   0.668  1.00 20.00     0.171 C 
HETATM    6  C7  UNL     1     -32.852   7.810   2.844  1.00 20.00     0.012 C 
HETATM    7  C8  UNL     1     -32.093   8.710   3.828  1.00 20.00     0.023 C 
HETATM    8  F10 UNL     1     -32.815   9.580  -0.431  1.00 20.00    -0.249 F 
ENDROOT
BRANCH   6   9
HETATM    9  C1  UNL     1     -34.044   7.262   3.586  1.00 20.00     0.240 C 
HETATM   10  O9  UNL     1     -34.238   6.064   3.763  1.00 20.00    -0.306 OA
ENDBRANCH   6   9
TORSDOF 1
