REMARK  1 active torsions:
REMARK  status: ('A' for Active; 'I' for Inactive)
REMARK    1  A    between atoms: C2_2  and  C4_4 
ROOT
HETATM    1  C1  UNL     1     -34.568   6.351   3.286  1.00 20.00     0.065 C 
HETATM    2  C3  UNL     1     -33.298   6.561   2.652  1.00 20.00     0.113 A 
HETATM    3  C4  UNL     1     -33.241   7.430   1.416  1.00 20.00     0.082 A 
HETATM    4  C5  UNL     1     -32.990   5.937   1.303  1.00 20.00    -0.019 A 
HETATM    5  C7  UNL     1     -31.585   5.428   1.089  1.00 20.00     0.017 C 
HETATM    6  C8  UNL     1     -34.035   5.117   0.585  1.00 20.00     0.017 C 
HETATM    7  N9  UNL     1     -35.595   6.180   3.798  1.00 20.00    -0.197 NA
ENDROOT
BRANCH   3   8
HETATM    8  C2  UNL     1     -32.141   8.392   1.265  1.00 20.00     0.129 C 
HETATM    9  C6  UNL     1     -32.476   9.706   0.612  1.00 20.00     0.091 C 
HETATM   10  O10 UNL     1     -31.003   8.138   1.656  1.00 20.00    -0.298 OA
ENDBRANCH   3   8
TORSDOF 1
