REMARK  0 active torsions:
REMARK  status: ('A' for Active; 'I' for Inactive)
ROOT
HETATM    1  C1  UNL     1     -32.218   9.599  -0.108  1.00 20.00     0.017 C 
HETATM    2  C2  UNL     1     -32.317   8.801   0.782  1.00 20.00    -0.050 C 
HETATM    3  C3  UNL     1     -33.833   7.361   4.284  1.00 20.00     0.053 C 
HETATM    4  C4  UNL     1     -32.374   7.783   4.273  1.00 20.00     0.174 C 
HETATM    5  C5  UNL     1     -34.160   6.597   3.012  1.00 20.00     0.174 C 
HETATM    6  C6  UNL     1     -32.438   7.819   1.878  1.00 20.00     0.227 C 
HETATM    7  C7  UNL     1     -31.467   6.666   1.587  1.00 20.00     0.095 C 
HETATM    8  O8  UNL     1     -32.079   8.507   3.082  1.00 20.00    -0.345 OA
HETATM    9  O9  UNL     1     -33.797   7.365   1.868  1.00 20.00    -0.345 OA
ENDROOT
TORSDOF 0
