REMARK  3 active torsions:
REMARK  status: ('A' for Active; 'I' for Inactive)
REMARK    1  A    between atoms: C2_2  and  N9_9 
REMARK    2  A    between atoms: C6_6  and  N9_9 
REMARK    3  A    between atoms: C7_7  and  N9_9 
ROOT
HETATM    1  C1  UNL     1     -32.419   8.727   0.755  1.00 20.00     0.036 C 
HETATM    2  C2  UNL     1     -32.633   7.817   1.506  1.00 20.00     0.024 C 
HETATM    3  C3  UNL     1     -32.174   9.769  -0.105  1.00 20.00     0.154 C 
HETATM    4  N8  UNL     1     -31.967  10.649  -0.832  1.00 20.00    -0.182 NA
ENDROOT
BRANCH   2   5
HETATM    5  N9  UNL     1     -32.894   6.713   2.417  1.00 20.00    -0.342 N 
BRANCH   5   6
HETATM    6  C6  UNL     1     -32.949   5.381   1.852  1.00 20.00     0.128 C 
HETATM    7  C4  UNL     1     -31.660   5.022   1.195  1.00 20.00     0.027 C 
ENDBRANCH   5   6
BRANCH   5   8
HETATM    8  C7  UNL     1     -33.676   6.997   3.602  1.00 20.00     0.128 C 
HETATM    9  C5  UNL     1     -33.011   8.027   4.451  1.00 20.00     0.027 C 
ENDBRANCH   5   8
ENDBRANCH   2   5
TORSDOF 3
