REMARK  1 active torsions:
REMARK  status: ('A' for Active; 'I' for Inactive)
REMARK    1  A    between atoms: C3_3  and  C7_7 
ROOT
HETATM    1  C1  UNL     1     -34.433   8.423   1.948  1.00 20.00    -0.025 C 
HETATM    2  C2  UNL     1     -34.381   7.146   1.542  1.00 20.00    -0.020 C 
HETATM    3  C4  UNL     1     -33.379   7.904   4.121  1.00 20.00     0.021 C 
HETATM    4  C5  UNL     1     -32.215   7.779   2.047  1.00 20.00     0.022 C 
HETATM    5  C6  UNL     1     -33.209   8.675   2.793  1.00 20.00     0.010 C 
HETATM    6  C7  UNL     1     -33.278   6.417   3.672  1.00 20.00     0.067 C 
HETATM    7  C8  UNL     1     -33.121   6.538   2.130  1.00 20.00    -0.016 C 
HETATM    8  C10 UNL     1     -32.580   5.320   1.415  1.00 20.00     0.020 C 
ENDROOT
BRANCH   6   9
HETATM    9  C3  UNL     1     -34.471   5.615   4.099  1.00 20.00     0.128 C 
HETATM   10  C9  UNL     1     -34.244   4.150   4.357  1.00 20.00     0.091 C 
HETATM   11  O11 UNL     1     -35.580   6.129   4.233  1.00 20.00    -0.298 OA
ENDBRANCH   6   9
TORSDOF 1
