REMARK  1 active torsions:
REMARK  status: ('A' for Active; 'I' for Inactive)
REMARK    1  A    between atoms: C5_5  and  C7_7 
ROOT
HETATM    1  C1  UNL     1     -32.230   9.323   0.207  1.00 20.00    -0.003 A 
HETATM    2  C2  UNL     1     -31.937   9.555   1.607  1.00 20.00    -0.003 A 
HETATM    3  C3  UNL     1     -32.561   8.027   0.058  1.00 20.00    -0.012 A 
HETATM    4  C4  UNL     1     -32.099   8.393   2.266  1.00 20.00    -0.012 A 
HETATM    5  C6  UNL     1     -32.008   5.924   1.476  1.00 20.00     0.032 A 
HETATM    6  C7  UNL     1     -33.474   6.230   1.700  1.00 20.00     0.072 A 
HETATM    7  C8  UNL     1     -32.513   7.322   1.348  1.00 20.00     0.006 A 
ENDROOT
BRANCH   6   8
HETATM    8  C5  UNL     1     -34.028   6.117   3.055  1.00 20.00     0.128 C 
HETATM    9  C9  UNL     1     -33.784   4.821   3.780  1.00 20.00     0.091 C 
HETATM   10  O10 UNL     1     -34.658   7.037   3.573  1.00 20.00    -0.298 OA
ENDBRANCH   6   8
TORSDOF 1
