REMARK  0 active torsions:
REMARK  status: ('A' for Active; 'I' for Inactive)
ROOT
HETATM    1  C1  UNL     1     -31.984   9.400  -0.242  1.00 20.00     0.017 C 
HETATM    2  C2  UNL     1     -32.390   8.689   0.635  1.00 20.00    -0.082 C 
HETATM    3  C3  UNL     1     -32.873   7.842   1.677  1.00 20.00     0.000 C 
HETATM    4  C4  UNL     1     -33.082   6.523   1.473  1.00 20.00    -0.041 C 
HETATM    5  C5  UNL     1     -33.127   8.471   3.029  1.00 20.00     0.083 C 
HETATM    6  C6  UNL     1     -33.610   5.635   2.587  1.00 20.00     0.307 C 
HETATM    7  C7  UNL     1     -33.310   7.438   4.158  1.00 20.00     0.223 C 
HETATM    8  C8  UNL     1     -32.816   5.795   0.181  1.00 20.00     0.046 C 
HETATM    9  C9  UNL     1     -33.757   8.119   5.455  1.00 20.00     0.043 C 
HETATM   10  C10 UNL     1     -35.580   6.703   3.515  1.00 20.00     0.310 C 
HETATM   11  N11 UNL     1     -34.187   6.323   3.756  1.00 20.00     0.092 N 
ENDROOT
TORSDOF 0
