REMARK  0 active torsions:
REMARK  status: ('A' for Active; 'I' for Inactive)
ROOT
HETATM    1  C1  UNL     1     -32.676   9.304   0.483  1.00 20.00     0.066 C 
HETATM    2  C2  UNL     1     -34.014   7.177   4.119  1.00 20.00     0.031 C 
HETATM    3  C3  UNL     1     -32.803   8.113   4.072  1.00 20.00     0.009 C 
HETATM    4  C4  UNL     1     -33.813   5.928   3.250  1.00 20.00     0.272 C 
HETATM    5  C5  UNL     1     -33.842   7.214   1.166  1.00 20.00     0.292 C 
HETATM    6  C6  UNL     1     -31.819   6.780   2.216  1.00 20.00     0.278 C 
HETATM    7  C7  UNL     1     -33.267   8.571   1.616  1.00 20.00     0.127 C 
HETATM    8  C8  UNL     1     -32.199   8.190   2.657  1.00 20.00     0.033 C 
HETATM    9  N9  UNL     1     -32.211   9.881  -0.410  1.00 20.00    -0.197 NA
HETATM   10  N10 UNL     1     -33.140   6.177   1.957  1.00 20.00     0.090 N 
ENDROOT
TORSDOF 0
