REMARK  3 active torsions:
REMARK  status: ('A' for Active; 'I' for Inactive)
REMARK    1  A    between atoms: C1_1  and  C8_8 
REMARK    2  A    between atoms: C8_8  and  C9_9 
REMARK    3  A    between atoms: C9_9  and  C10_10 
ROOT
HETATM    1  C8  UNL     1     -32.774   6.764   1.564  1.00 20.00     0.055 C 
ENDROOT
BRANCH   1   2
HETATM    2  C1  UNL     1     -33.532   6.038   2.626  1.00 20.00     0.006 C 
HETATM    3  C2  UNL     1     -33.050   4.717   3.138  1.00 20.00     0.056 C 
HETATM    4  C3  UNL     1     -33.846   4.652   4.420  1.00 20.00     0.027 C 
HETATM    5  C4  UNL     1     -35.085   5.463   4.085  1.00 20.00     0.149 C 
HETATM    6  N11 UNL     1     -34.644   6.490   3.121  1.00 20.00    -0.298 NA
ENDBRANCH   1   2
BRANCH   1   7
HETATM    7  C9  UNL     1     -32.985   8.277   1.675  1.00 20.00     0.014 C 
BRANCH   7   8
HETATM    8  C10 UNL     1     -32.294   9.134   0.580  1.00 20.00    -0.051 C 
HETATM    9  C5  UNL     1     -30.765   8.984   0.639  1.00 20.00     0.014 C 
HETATM   10  C6  UNL     1     -32.663  10.620   0.721  1.00 20.00     0.014 C 
HETATM   11  C7  UNL     1     -32.781   8.639  -0.796  1.00 20.00     0.014 C 
ENDBRANCH   7   8
ENDBRANCH   1   7
TORSDOF 3
