REMARK  2 active torsions:
REMARK  status: ('A' for Active; 'I' for Inactive)
REMARK    1  A    between atoms: C2_2  and  C7_7 
REMARK    2  A    between atoms: C6_6  and  C7_7 
ROOT
HETATM    1  C1  UNL     1     -33.976   4.872   3.967  1.00 20.00     0.064 C 
HETATM    2  C4  UNL     1     -34.647   7.189   4.452  1.00 20.00     0.026 C 
HETATM    3  C6  UNL     1     -33.584   6.289   3.816  1.00 20.00     0.099 C 
HETATM    4  N8  UNL     1     -34.282   3.759   4.087  1.00 20.00    -0.197 NA
ENDROOT
BRANCH   3   5
HETATM    5  C7  UNL     1     -33.292   6.617   2.333  1.00 20.00     0.068 C 
HETATM    6  C5  UNL     1     -32.564   5.503   1.576  1.00 20.00     0.019 C 
BRANCH   5   7
HETATM    7  C2  UNL     1     -32.515   7.931   2.216  1.00 20.00     0.128 C 
HETATM    8  C3  UNL     1     -32.194   8.413   0.823  1.00 20.00     0.091 C 
HETATM    9  O9  UNL     1     -32.140   8.566   3.202  1.00 20.00    -0.298 OA
ENDBRANCH   5   7
ENDBRANCH   3   5
TORSDOF 2
