REMARK  1 active torsions:
REMARK  status: ('A' for Active; 'I' for Inactive)
REMARK    1  A    between atoms: C2_2  and  C3_3 
ROOT
HETATM    1  C1  UNL     1     -32.841   7.803   2.322  1.00 20.00    -0.043 C 
HETATM    2  C2  UNL     1     -32.373   8.920   1.763  1.00 20.00     0.055 C 
HETATM    3  C4  UNL     1     -33.168   7.418   3.745  1.00 20.00     0.040 C 
HETATM    4  C5  UNL     1     -34.002   6.299   3.090  1.00 20.00     0.046 C 
HETATM    5  C6  UNL     1     -33.227   6.448   1.758  1.00 20.00     0.199 C 
HETATM    6  F9  UNL     1     -32.249   5.532   1.555  1.00 20.00    -0.245 F 
ENDROOT
BRANCH   2   7
HETATM    7  C3  UNL     1     -32.146   9.002   0.294  1.00 20.00     0.145 C 
HETATM    8  C7  UNL     1     -31.167   8.023  -0.297  1.00 20.00     0.096 C 
HETATM    9  O8  UNL     1     -32.743   9.810  -0.414  1.00 20.00    -0.294 OA
ENDBRANCH   2   7
TORSDOF 1
