REMARK  0 active torsions:
REMARK  status: ('A' for Active; 'I' for Inactive)
ROOT
HETATM    1  C1  UNL     1     -32.666   7.872   2.273  1.00 20.00     0.031 A 
HETATM    2  C2  UNL     1     -34.460   7.232   3.816  1.00 20.00    -0.014 A 
HETATM    3  C3  UNL     1     -34.060   4.503   3.084  1.00 20.00    -0.013 A 
HETATM    4  C4  UNL     1     -31.739   7.450   1.395  1.00 20.00     0.117 A 
HETATM    5  C5  UNL     1     -32.249   5.231   1.583  1.00 20.00     0.128 A 
HETATM    6  C6  UNL     1     -33.519   6.892   2.918  1.00 20.00    -0.027 A 
HETATM    7  C7  UNL     1     -33.328   5.498   2.572  1.00 20.00    -0.012 A 
HETATM    8  C8  UNL     1     -35.345   6.227   4.501  1.00 20.00     0.032 A 
HETATM    9  C9  UNL     1     -35.160   4.757   4.074  1.00 20.00     0.032 A 
HETATM   10  N10 UNL     1     -31.502   6.139   1.030  1.00 20.00    -0.272 NA
ENDROOT
TORSDOF 0
