REMARK  2 active torsions:
REMARK  status: ('A' for Active; 'I' for Inactive)
REMARK    1  A    between atoms: C3_3  and  C5_5 
REMARK    2  A    between atoms: C5_5  and  C9_9 
ROOT
HETATM    1  C1  UNL     1     -34.510   6.434   3.086  1.00 20.00    -0.012 A 
HETATM    2  C2  UNL     1     -34.964   4.453   4.574  1.00 20.00    -0.020 A 
HETATM    3  C3  UNL     1     -33.426   5.807   2.606  1.00 20.00    -0.003 A 
HETATM    4  C4  UNL     1     -33.878   3.820   4.095  1.00 20.00    -0.083 A 
HETATM    5  C6  UNL     1     -35.398   5.819   4.127  1.00 20.00     0.055 A 
HETATM    6  C7  UNL     1     -32.985   4.443   3.047  1.00 20.00     0.075 A 
HETATM    7  C8  UNL     1     -33.481   2.454   4.571  1.00 20.00     0.043 C 
ENDROOT
BRANCH   3   8
HETATM    8  C5  UNL     1     -32.630   6.502   1.591  1.00 20.00     0.261 C 
HETATM    9  O10 UNL     1     -32.465   6.010   0.473  1.00 20.00    -0.283 OA
BRANCH   8  10
HETATM   10  C9  UNL     1     -32.029   7.825   1.974  1.00 20.00     0.455 C 
HETATM   11  F11 UNL     1     -32.332   8.180   3.248  1.00 20.00    -0.163 F 
HETATM   12  F12 UNL     1     -32.468   8.828   1.172  1.00 20.00    -0.163 F 
HETATM   13  F13 UNL     1     -30.675   7.810   1.882  1.00 20.00    -0.163 F 
ENDBRANCH   8  10
ENDBRANCH   3   8
TORSDOF 2
