REMARK  1 active torsions:
REMARK  status: ('A' for Active; 'I' for Inactive)
REMARK    1  A    between atoms: C8_8  and  O11_11 
ROOT
HETATM    1  C1  UNL     1     -33.568   5.566   2.986  1.00 20.00     0.005 C 
HETATM    2  C2  UNL     1     -33.729   6.552   3.886  1.00 20.00     0.005 C 
HETATM    3  C3  UNL     1     -33.025   5.791   1.648  1.00 20.00    -0.063 C 
HETATM    4  C4  UNL     1     -32.727   4.766   0.837  1.00 20.00     0.019 C 
HETATM    5  C5  UNL     1     -31.584   9.132   0.446  1.00 20.00     0.001 C 
HETATM    6  C6  UNL     1     -31.860   7.644   0.182  1.00 20.00     0.010 C 
HETATM    7  C7  UNL     1     -32.088   9.426   1.865  1.00 20.00     0.008 C 
HETATM    8  C8  UNL     1     -33.315   7.982   3.637  1.00 20.00     0.145 C 
HETATM    9  C9  UNL     1     -32.858   7.244   1.269  1.00 20.00     0.024 C 
HETATM   10  C10 UNL     1     -32.337   8.047   2.465  1.00 20.00     0.026 C 
ENDROOT
BRANCH   8  11
HETATM   11  O11 UNL     1     -32.683   8.485   4.809  1.00 20.00    -0.391 OA
HETATM   12  H25 UNL     1     -33.337   8.428   5.524  1.00 20.00     0.210 HD
ENDBRANCH   8  11
TORSDOF 1
