REMARK  1 active torsions:
REMARK  status: ('A' for Active; 'I' for Inactive)
REMARK    1  A    between atoms: C1_1  and  C2_2 
ROOT
HETATM    1  C2  UNL     1     -33.901   5.786   2.368  1.00 20.00     0.084 A 
HETATM    2  C3  UNL     1     -33.483   5.064   3.627  1.00 20.00     0.018 A 
HETATM    3  C4  UNL     1     -34.216   6.390   3.726  1.00 20.00     0.048 A 
HETATM    4  C6  UNL     1     -34.120   3.767   3.994  1.00 20.00     0.012 C 
HETATM    5  C7  UNL     1     -35.648   6.450   4.172  1.00 20.00     0.034 C 
HETATM    6 CL9  UNL     1     -33.237   7.765   4.301  1.00 20.00    -0.118 Cl
ENDROOT
BRANCH   1   7
HETATM    7  C1  UNL     1     -32.868   6.367   1.500  1.00 20.00     0.129 C 
HETATM    8  C5  UNL     1     -31.763   5.447   1.055  1.00 20.00     0.091 C 
HETATM    9  O8  UNL     1     -32.905   7.546   1.153  1.00 20.00    -0.298 OA
ENDBRANCH   1   7
TORSDOF 1
