REMARK  1 active torsions:
REMARK  status: ('A' for Active; 'I' for Inactive)
REMARK    1  A    between atoms: C3_3  and  C7_7 
ROOT
HETATM    1  C1  UNL     1     -32.552   8.471   1.890  1.00 20.00    -0.023 C 
HETATM    2  C2  UNL     1     -32.881   7.883   3.055  1.00 20.00    -0.075 C 
HETATM    3  C4  UNL     1     -32.153   7.717   0.657  1.00 20.00     0.027 C 
HETATM    4  C5  UNL     1     -31.759   6.271   0.953  1.00 20.00     0.005 C 
HETATM    5  C6  UNL     1     -32.778   5.611   1.873  1.00 20.00     0.018 C 
HETATM    6  C7  UNL     1     -32.927   6.375   3.198  1.00 20.00     0.100 C 
HETATM    7  C8  UNL     1     -33.155   8.709   4.282  1.00 20.00     0.044 C 
ENDROOT
BRANCH   6   8
HETATM    8  C3  UNL     1     -34.242   5.991   3.813  1.00 20.00     0.227 C 
HETATM    9  O9  UNL     1     -35.088   6.831   4.104  1.00 20.00    -0.279 OA
HETATM   10 CL10 UNL     1     -34.381   4.274   4.038  1.00 20.00    -0.043 Cl
ENDBRANCH   6   8
TORSDOF 1
