REMARK  0 active torsions:
REMARK  status: ('A' for Active; 'I' for Inactive)
ROOT
HETATM    1  C1  UNL     1     -32.345   7.863   1.497  1.00 20.00    -0.039 C 
HETATM    2  C2  UNL     1     -32.790   6.516   1.850  1.00 20.00     0.034 C 
HETATM    3  C3  UNL     1     -34.321   5.773   3.726  1.00 20.00     0.224 C 
HETATM    4  C4  UNL     1     -31.642   8.241   0.423  1.00 20.00     0.021 C 
HETATM    5  C5  UNL     1     -32.314   5.356   1.384  1.00 20.00     0.044 C 
HETATM    6  C6  UNL     1     -32.895   8.815   2.548  1.00 20.00     0.065 C 
HETATM    7  C7  UNL     1     -35.047   6.643   4.739  1.00 20.00     0.105 C 
HETATM    8  C8  UNL     1     -34.405   8.029   4.553  1.00 20.00     0.035 C 
HETATM    9  C9  UNL     1     -34.086   8.035   3.075  1.00 20.00     0.098 C 
HETATM   10  N10 UNL     1     -33.738   6.656   2.828  1.00 20.00    -0.313 N 
HETATM   11  O11 UNL     1     -34.280   4.553   3.757  1.00 20.00    -0.273 OA
ENDROOT
TORSDOF 0
