REMARK  2 active torsions:
REMARK  status: ('A' for Active; 'I' for Inactive)
REMARK    1  A    between atoms: C1_1  and  C4_4 
REMARK    2  A    between atoms: C1_1  and  C5_5 
ROOT
HETATM    1  C1  UNL     1     -32.924   6.942   2.497  1.00 20.00     0.144 C 
HETATM    2  O6  UNL     1     -32.998   5.817   2.006  1.00 20.00    -0.296 OA
ENDROOT
BRANCH   1   3
HETATM    3  C4  UNL     1     -33.889   7.379   3.512  1.00 20.00     0.056 A 
HETATM    4  C2  UNL     1     -35.041   6.480   3.871  1.00 20.00     0.013 A 
HETATM    5  C3  UNL     1     -33.921   6.684   4.846  1.00 20.00     0.013 A 
ENDBRANCH   1   3
BRANCH   1   6
HETATM    6  C5  UNL     1     -31.865   7.953   2.120  1.00 20.00     0.193 C 
HETATM    7 CL7  UNL     1     -32.407   8.949   0.761  1.00 20.00    -0.123 Cl
ENDBRANCH   1   6
TORSDOF 2
