REMARK  1 active torsions:
REMARK  status: ('A' for Active; 'I' for Inactive)
REMARK    1  A    between atoms: C1_1  and  C6_6 
ROOT
HETATM    1  C2  UNL     1     -32.251   8.072   2.380  1.00 20.00     0.005 A 
HETATM    2  C3  UNL     1     -31.390   7.024   1.666  1.00 20.00     0.005 A 
HETATM    3  C4  UNL     1     -34.176   6.506   3.243  1.00 20.00     0.018 C 
HETATM    4  C5  UNL     1     -32.849   4.883   2.089  1.00 20.00     0.018 C 
HETATM    5  C6  UNL     1     -33.279   5.297   3.493  1.00 20.00     0.073 C 
HETATM    6  C7  UNL     1     -33.517   7.244   2.080  1.00 20.00    -0.010 A 
HETATM    7  C8  UNL     1     -32.653   6.201   1.342  1.00 20.00    -0.010 A 
ENDROOT
BRANCH   5   8
HETATM    8  C1  UNL     1     -34.017   4.207   4.198  1.00 20.00     0.223 C 
HETATM    9  O9  UNL     1     -35.187   4.340   4.545  1.00 20.00    -0.279 OA
HETATM   10 CL10 UNL     1     -33.029   2.798   4.440  1.00 20.00    -0.043 Cl
ENDBRANCH   5   8
TORSDOF 1
