REMARK  2 active torsions:
REMARK  status: ('A' for Active; 'I' for Inactive)
REMARK    1  A    between atoms: C1_1  and  C7_7 
REMARK    2  A    between atoms: C4_4  and  C7_7 
ROOT
HETATM    1  C6  UNL     1     -31.864   5.684   1.359  1.00 20.00     0.018 C 
HETATM    2  C7  UNL     1     -32.905   6.779   1.576  1.00 20.00     0.055 C 
ENDROOT
BRANCH   2   3
HETATM    3  C1  UNL     1     -33.676   6.552   2.873  1.00 20.00     0.127 C 
HETATM    4  C5  UNL     1     -34.236   7.774   3.556  1.00 20.00     0.091 C 
HETATM    5  O8  UNL     1     -33.821   5.434   3.367  1.00 20.00    -0.298 OA
ENDBRANCH   2   3
BRANCH   2   6
HETATM    6  C4  UNL     1     -32.249   8.154   1.595  1.00 20.00    -0.004 A 
HETATM    7  C2  UNL     1     -31.916   8.853   0.306  1.00 20.00     0.006 A 
HETATM    8  C3  UNL     1     -33.028   9.370   1.176  1.00 20.00     0.006 A 
ENDBRANCH   2   6
TORSDOF 2
