REMARK  1 active torsions:
REMARK  status: ('A' for Active; 'I' for Inactive)
REMARK    1  A    between atoms: C3_3  and  C9_9 
ROOT
HETATM    1  C1  UNL     1     -33.091   5.795   0.545  1.00 20.00    -0.030 C 
HETATM    2  C2  UNL     1     -32.038   5.980   1.355  1.00 20.00    -0.026 C 
HETATM    3  C4  UNL     1     -34.040   6.903   0.181  1.00 20.00     0.031 C 
HETATM    4  C5  UNL     1     -32.288   7.457   3.367  1.00 20.00     0.022 C 
HETATM    5  C6  UNL     1     -32.268   8.451   1.066  1.00 20.00     0.013 C 
HETATM    6  C7  UNL     1     -34.458   8.341   2.288  1.00 20.00     0.018 C 
HETATM    7  C8  UNL     1     -31.708   7.327   1.947  1.00 20.00     0.009 C 
HETATM    8  C9  UNL     1     -33.821   7.518   3.412  1.00 20.00     0.073 C 
HETATM    9  C10 UNL     1     -33.775   8.241   0.907  1.00 20.00    -0.010 C 
ENDROOT
BRANCH   8  10
HETATM   10  C3  UNL     1     -34.422   6.141   3.483  1.00 20.00     0.223 C 
HETATM   11  O11 UNL     1     -33.729   5.130   3.418  1.00 20.00    -0.279 OA
HETATM   12 CL12 UNL     1     -36.150   6.190   3.662  1.00 20.00    -0.043 Cl
ENDBRANCH   8  10
TORSDOF 1
