REMARK  0 active torsions:
REMARK  status: ('A' for Active; 'I' for Inactive)
ROOT
HETATM    1  C1  UNL     1     -34.491   5.240   3.830  1.00 20.00     0.223 C 
HETATM    2  C2  UNL     1     -32.402   4.682   2.873  1.00 20.00     0.130 C 
HETATM    3  C3  UNL     1     -34.044   6.444   3.016  1.00 20.00     0.079 C 
HETATM    4  C4  UNL     1     -32.994   5.832   2.066  1.00 20.00     0.012 C 
HETATM    5  C5  UNL     1     -33.528   7.524   3.958  1.00 20.00     0.020 C 
HETATM    6  C6  UNL     1     -31.937   6.784   1.532  1.00 20.00     0.012 C 
HETATM    7  C7  UNL     1     -33.479   3.005   4.417  1.00 20.00     0.152 C 
HETATM    8  N8  UNL     1     -33.503   4.266   3.708  1.00 20.00    -0.356 N 
HETATM    9  O9  UNL     1     -35.515   5.193   4.497  1.00 20.00    -0.273 OA
ENDROOT
TORSDOF 0
