REMARK  3 active torsions:
REMARK  status: ('A' for Active; 'I' for Inactive)
REMARK    1  A    between atoms: C1_1  and  C4_4 
REMARK    2  A    between atoms: C3_3  and  C10_10 
REMARK    3  A    between atoms: C5_5  and  C10_10 
ROOT
HETATM    1  C1  UNL     1     -33.878   4.639   3.910  1.00 20.00    -0.101 C 
HETATM    2  C2  UNL     1     -33.305   3.752   4.482  1.00 20.00    -0.111 C 
HETATM    3  C7  UNL     1     -32.607   2.671   5.177  1.00 20.00     0.112 C 
ENDROOT
BRANCH   1   4
HETATM    4  C4  UNL     1     -34.562   5.698   3.227  1.00 20.00     0.078 A 
HETATM    5  C5  UNL     1     -33.851   6.533   2.185  1.00 20.00     0.017 A 
HETATM    6  C6  UNL     1     -34.229   7.157   3.518  1.00 20.00    -0.028 A 
HETATM    7  C8  UNL     1     -33.154   7.514   4.516  1.00 20.00     0.016 C 
HETATM    8  C9  UNL     1     -35.376   8.139   3.511  1.00 20.00     0.016 C 
BRANCH   5   9
HETATM    9  C10 UNL     1     -32.436   6.291   1.778  1.00 20.00     0.076 C 
BRANCH   9  10
HETATM   10  C3  UNL     1     -31.762   7.509   1.171  1.00 20.00     0.231 C 
HETATM   11  O11 UNL     1     -32.298   8.607   1.069  1.00 20.00    -0.307 OA
ENDBRANCH   9  10
ENDBRANCH   5   9
ENDBRANCH   1   4
TORSDOF 3
