REMARK  1 active torsions:
REMARK  status: ('A' for Active; 'I' for Inactive)
REMARK    1  A    between atoms: C2_2  and  C3_3 
ROOT
HETATM    1  C1  UNL     1     -32.734   8.259   2.439  1.00 20.00     0.011 C 
HETATM    2  C2  UNL     1     -33.321   7.147   2.900  1.00 20.00     0.004 C 
HETATM    3  C4  UNL     1     -31.961   8.253   1.152  1.00 20.00     0.195 C 
HETATM    4  C5  UNL     1     -33.214   5.838   2.182  1.00 20.00     0.069 C 
HETATM    5  C6  UNL     1     -32.084   5.881   1.155  1.00 20.00     0.172 C 
HETATM    6  O8  UNL     1     -32.191   7.072   0.373  1.00 20.00    -0.387 OA
ENDROOT
BRANCH   2   7
HETATM    7  C3  UNL     1     -34.065   7.217   4.158  1.00 20.00     0.248 C 
HETATM    8  O7  UNL     1     -33.713   8.031   5.019  1.00 20.00    -0.274 OA
HETATM    9 CL9  UNL     1     -35.418   6.122   4.346  1.00 20.00    -0.039 Cl
ENDBRANCH   2   7
TORSDOF 1
