REMARK  3 active torsions:
REMARK  status: ('A' for Active; 'I' for Inactive)
REMARK    1  A    between atoms: C1_1  and  C2_2 
REMARK    2  A    between atoms: C4_4  and  C9_9 
REMARK    3  A    between atoms: C5_5  and  C9_9 
ROOT
HETATM    1  C2  UNL     1     -32.490   8.078   1.114  1.00 20.00    -0.004 C 
HETATM    2  C4  UNL     1     -32.299   7.077   1.987  1.00 20.00    -0.015 C 
ENDROOT
BRANCH   2   3
HETATM    3  C9  UNL     1     -33.046   5.771   1.930  1.00 20.00     0.073 C 
HETATM    4  C8  UNL     1     -32.093   4.592   1.770  1.00 20.00     0.022 C 
BRANCH   3   5
HETATM    5  C5  UNL     1     -33.865   5.603   3.209  1.00 20.00     0.130 C 
HETATM    6  C7  UNL     1     -33.565   4.384   4.046  1.00 20.00     0.091 C 
HETATM    7  O10 UNL     1     -34.754   6.389   3.539  1.00 20.00    -0.298 OA
ENDBRANCH   3   5
ENDBRANCH   2   3
BRANCH   1   8
HETATM    8  C1  UNL     1     -31.768   9.328   1.175  1.00 20.00    -0.005 C 
HETATM    9  C3  UNL     1     -31.959  10.328   0.302  1.00 20.00    -0.031 C 
HETATM   10  C6  UNL     1     -32.934  10.267  -0.827  1.00 20.00     0.036 C 
ENDBRANCH   1   8
TORSDOF 3
