REMARK  0 active torsions:
REMARK  status: ('A' for Active; 'I' for Inactive)
ROOT
HETATM    1  C1  UNL     1     -35.327   5.794   4.404  1.00 20.00     0.003 A 
HETATM    2  C2  UNL     1     -34.959   7.085   4.446  1.00 20.00     0.013 A 
HETATM    3  C3  UNL     1     -34.555   5.096   3.388  1.00 20.00     0.030 A 
HETATM    4  C4  UNL     1     -33.200   8.318   3.151  1.00 20.00    -0.011 C 
HETATM    5  C5  UNL     1     -33.926   7.236   3.451  1.00 20.00    -0.013 A 
HETATM    6  C6  UNL     1     -33.710   5.956   2.791  1.00 20.00     0.039 A 
HETATM    7  C7  UNL     1     -32.122   8.244   2.105  1.00 20.00     0.048 C 
HETATM    8  C8  UNL     1     -32.260   7.059   1.130  1.00 20.00     0.126 C 
HETATM    9  C9  UNL     1     -32.546   4.589   1.076  1.00 20.00     0.149 C 
HETATM   10  N10 UNL     1     -32.783   5.844   1.777  1.00 20.00    -0.384 N 
ENDROOT
TORSDOF 0
