REMARK  1 active torsions:
REMARK  status: ('A' for Active; 'I' for Inactive)
REMARK    1  A    between atoms: C3_3  and  C6_6 
ROOT
HETATM    1  C1  UNL     1     -32.126   5.483   1.120  1.00 20.00    -0.029 C 
HETATM    2  C2  UNL     1     -31.889   6.778   0.885  1.00 20.00    -0.021 C 
HETATM    3  C4  UNL     1     -33.119   5.294   2.220  1.00 20.00     0.046 C 
HETATM    4  C5  UNL     1     -32.673   7.677   1.813  1.00 20.00    -0.015 C 
HETATM    5  C6  UNL     1     -33.786   6.688   2.318  1.00 20.00     0.046 C 
HETATM    6  C7  UNL     1     -33.208   8.905   1.065  1.00 20.00     0.020 C 
HETATM    7  C8  UNL     1     -31.721   8.155   2.929  1.00 20.00     0.020 C 
HETATM    8  C9  UNL     1     -35.070   6.692   1.463  1.00 20.00     0.026 C 
ENDROOT
BRANCH   5   9
HETATM    9  C3  UNL     1     -34.208   6.978   3.735  1.00 20.00     0.228 C 
HETATM   10  O10 UNL     1     -33.766   7.942   4.355  1.00 20.00    -0.279 OA
HETATM   11 CL11 UNL     1     -35.349   5.811   4.330  1.00 20.00    -0.043 Cl
ENDBRANCH   5   9
TORSDOF 1
