REMARK  1 active torsions:
REMARK  status: ('A' for Active; 'I' for Inactive)
REMARK    1  A    between atoms: C4_4  and  C7_7 
ROOT
HETATM    1  C1  UNL     1     -33.682   5.436   2.263  1.00 20.00     0.047 C 
HETATM    2  C2  UNL     1     -32.820   6.174   1.553  1.00 20.00    -0.006 C 
HETATM    3  C3  UNL     1     -34.285   5.975   3.502  1.00 20.00     0.149 C 
HETATM    4  C5  UNL     1     -33.987   7.406   3.888  1.00 20.00     0.088 C 
HETATM    5  C6  UNL     1     -32.581   7.833   3.447  1.00 20.00     0.007 C 
HETATM    6  C7  UNL     1     -32.332   7.551   1.939  1.00 20.00     0.031 C 
HETATM    7  C8  UNL     1     -32.326   9.287   3.861  1.00 20.00     0.012 C 
HETATM    8  C9  UNL     1     -30.839   7.680   1.596  1.00 20.00     0.027 C 
HETATM    9  O10 UNL     1     -35.059   5.278   4.156  1.00 20.00    -0.293 OA
ENDROOT
BRANCH   6  10
HETATM   10  C4  UNL     1     -33.109   8.485   1.046  1.00 20.00     0.244 C 
HETATM   11  O11 UNL     1     -32.581   9.249   0.245  1.00 20.00    -0.306 OA
ENDBRANCH   6  10
TORSDOF 1
