REMARK  1 active torsions:
REMARK  status: ('A' for Active; 'I' for Inactive)
REMARK    1  A    between atoms: C3_3  and  C7_7 
ROOT
HETATM    1  C1  UNL     1     -31.006   7.157   1.460  1.00 20.00     0.006 C 
HETATM    2  C2  UNL     1     -31.551   5.945   1.284  1.00 20.00     0.007 C 
HETATM    3  C4  UNL     1     -32.388   7.615   3.467  1.00 20.00     0.054 C 
HETATM    4  C5  UNL     1     -32.094   8.040   2.016  1.00 20.00     0.244 C 
HETATM    5  C6  UNL     1     -32.986   6.052   1.737  1.00 20.00     0.255 C 
HETATM    6  C7  UNL     1     -32.990   6.195   3.273  1.00 20.00     0.094 C 
HETATM    7  N9  UNL     1     -33.304   7.462   1.380  1.00 20.00     0.100 N 
HETATM    8  H21 UNL     1     -34.153   7.785   1.843  1.00 20.00     0.317 HD
ENDROOT
BRANCH   6   9
HETATM    9  C3  UNL     1     -34.361   6.079   3.869  1.00 20.00     0.129 C 
HETATM   10  C8  UNL     1     -34.777   4.715   4.349  1.00 20.00     0.091 C 
HETATM   11  O10 UNL     1     -35.108   7.052   3.963  1.00 20.00    -0.298 OA
ENDBRANCH   6   9
TORSDOF 1
