REMARK  1 active torsions:
REMARK  status: ('A' for Active; 'I' for Inactive)
REMARK    1  A    between atoms: C6_6  and  N10_10 
ROOT
HETATM    1  C1  UNL     1     -32.327   8.612   1.117  1.00 20.00     0.066 C 
HETATM    2  C2  UNL     1     -32.393   5.327   1.609  1.00 20.00    -0.054 C 
HETATM    3  C3  UNL     1     -32.435   4.002   1.764  1.00 20.00     0.016 C 
HETATM    4  C4  UNL     1     -31.542   6.232   0.742  1.00 20.00     0.057 C 
HETATM    5  C5  UNL     1     -31.976   7.348   1.735  1.00 20.00     0.134 C 
HETATM    6  C6  UNL     1     -33.188   6.477   2.190  1.00 20.00     0.268 C 
HETATM    7  N9  UNL     1     -32.607   9.623   0.623  1.00 20.00    -0.197 NA
ENDROOT
BRANCH   6   8
HETATM    8  N10 UNL     1     -33.221   6.484   3.649  1.00 20.00     0.089 N 
HETATM    9  C7  UNL     1     -34.214   5.530   4.145  1.00 20.00     0.310 C 
HETATM   10  C8  UNL     1     -33.511   7.828   4.150  1.00 20.00     0.310 C 
ENDBRANCH   6   8
TORSDOF 1
