REMARK  1 active torsions:
REMARK  status: ('A' for Active; 'I' for Inactive)
REMARK    1  A    between atoms: C5_5  and  C7_7 
ROOT
HETATM    1  C1  UNL     1     -35.212   6.712   4.525  1.00 20.00    -0.026 A 
HETATM    2  C2  UNL     1     -35.071   5.429   4.160  1.00 20.00    -0.013 A 
HETATM    3  C3  UNL     1     -33.444   7.376   2.861  1.00 20.00    -0.019 A 
HETATM    4  C4  UNL     1     -33.291   6.094   2.482  1.00 20.00    -0.071 A 
HETATM    5  C6  UNL     1     -34.387   7.820   3.943  1.00 20.00     0.054 A 
HETATM    6  C7  UNL     1     -34.065   4.976   3.142  1.00 20.00     0.123 A 
HETATM    7  C8  UNL     1     -32.372   5.715   1.354  1.00 20.00     0.044 C 
ENDROOT
BRANCH   6   8
HETATM    8  C5  UNL     1     -33.095   4.108   3.885  1.00 20.00     0.230 C 
HETATM    9  O9  UNL     1     -31.892   4.352   3.902  1.00 20.00    -0.279 OA
HETATM   10 CL10 UNL     1     -33.882   2.776   4.677  1.00 20.00    -0.043 Cl
ENDBRANCH   6   8
TORSDOF 1
