REMARK  3 active torsions:
REMARK  status: ('A' for Active; 'I' for Inactive)
REMARK    1  A    between atoms: C1_1  and  C7_7 
REMARK    2  A    between atoms: C7_7  and  O10_10 
REMARK    3  A    between atoms: C8_8  and  N9_9 
ROOT
HETATM    1  C1  UNL     1     -33.591   5.920   2.966  1.00 20.00     0.032 C 
HETATM    2  C2  UNL     1     -32.903   5.407   1.720  1.00 20.00     0.068 C 
HETATM    3  N9  UNL     1     -33.456   7.116   3.432  1.00 20.00    -0.287 NA
ENDROOT
BRANCH   1   4
HETATM    4  C7  UNL     1     -34.541   4.986   3.705  1.00 20.00     0.161 C 
HETATM    5  C3  UNL     1     -33.809   4.193   4.774  1.00 20.00     0.045 C 
BRANCH   4   6
HETATM    6  O10 UNL     1     -35.571   5.747   4.308  1.00 20.00    -0.390 OA
HETATM    7  H27 UNL     1     -36.156   5.122   4.769  1.00 20.00     0.210 HD
ENDBRANCH   4   6
ENDBRANCH   1   4
BRANCH   3   8
HETATM    8  C8  UNL     1     -32.583   8.044   2.730  1.00 20.00     0.043 C 
HETATM    9  C4  UNL     1     -33.112   8.221   1.307  1.00 20.00     0.039 C 
HETATM   10  C5  UNL     1     -32.610   9.373   3.483  1.00 20.00     0.039 C 
HETATM   11  C6  UNL     1     -31.170   7.461   2.716  1.00 20.00     0.039 C 
ENDBRANCH   3   8
TORSDOF 3
