REMARK  1 active torsions:
REMARK  status: ('A' for Active; 'I' for Inactive)
REMARK    1  A    between atoms: C2_2  and  C3_3 
ROOT
HETATM    1  C1  UNL     1     -31.406   7.265   1.544  1.00 20.00    -0.011 C 
HETATM    2  C2  UNL     1     -32.357   8.084   1.070  1.00 20.00    -0.019 C 
HETATM    3  C4  UNL     1     -32.818   5.304   1.216  1.00 20.00     0.010 C 
HETATM    4  C5  UNL     1     -33.912   6.264   0.660  1.00 20.00     0.011 C 
HETATM    5  C6  UNL     1     -32.133   6.169   2.304  1.00 20.00     0.017 C 
HETATM    6  C7  UNL     1     -33.701   7.546   1.506  1.00 20.00     0.030 C 
HETATM    7  C8  UNL     1     -33.318   6.979   2.901  1.00 20.00    -0.033 C 
HETATM    8  C9  UNL     1     -32.903   8.052   3.937  1.00 20.00     0.016 C 
HETATM    9  C10 UNL     1     -34.410   6.128   3.577  1.00 20.00     0.016 C 
ENDROOT
BRANCH   2  10
HETATM   10  C3  UNL     1     -32.134   9.269   0.269  1.00 20.00     0.265 C 
HETATM   11  O11 UNL     1     -33.048   9.989  -0.143  1.00 20.00    -0.302 OA
ENDBRANCH   2  10
TORSDOF 1
