REMARK  1 active torsions:
REMARK  status: ('A' for Active; 'I' for Inactive)
REMARK    1  A    between atoms: C1_1  and  C3_3 
ROOT
HETATM    1  C2  UNL     1     -32.894   8.063   2.701  1.00 20.00     0.080 C 
HETATM    2  C3  UNL     1     -32.865   6.547   3.003  1.00 20.00     0.310 C 
HETATM    3  C4  UNL     1     -32.004   7.704   1.489  1.00 20.00     0.222 C 
HETATM    4  C5  UNL     1     -32.331   8.402   0.184  1.00 20.00     0.043 C 
HETATM    5  C6  UNL     1     -31.543   5.326   1.376  1.00 20.00     0.311 C 
HETATM    6  N7  UNL     1     -32.583   6.334   1.556  1.00 20.00     0.101 N 
ENDROOT
BRANCH   2   7
HETATM    7  C1  UNL     1     -34.167   5.852   3.408  1.00 20.00     0.252 C 
HETATM    8  O8  UNL     1     -34.260   4.628   3.447  1.00 20.00    -0.277 OA
HETATM    9 CL9  UNL     1     -35.426   6.988   3.784  1.00 20.00    -0.042 Cl
ENDBRANCH   2   7
TORSDOF 1
