REMARK  0 active torsions:
REMARK  status: ('A' for Active; 'I' for Inactive)
ROOT
HETATM    1  C1  UNL     1     -32.366   9.951   0.384  1.00 20.00     0.015 C 
HETATM    2  C2  UNL     1     -33.700   8.057   4.744  1.00 20.00     0.015 C 
HETATM    3  C3  UNL     1     -32.233   8.899   0.946  1.00 20.00    -0.082 C 
HETATM    4  C4  UNL     1     -33.545   7.637   3.631  1.00 20.00    -0.082 C 
HETATM    5  C5  UNL     1     -32.071   7.615   1.632  1.00 20.00     0.243 C 
HETATM    6  C6  UNL     1     -33.357   7.125   2.272  1.00 20.00     0.243 C 
HETATM    7  C7  UNL     1     -32.327   5.390   1.210  1.00 20.00     0.160 C 
HETATM    8  C8  UNL     1     -33.132   4.714   0.106  1.00 20.00     0.078 C 
HETATM    9  C9  UNL     1     -31.215   4.482   1.719  1.00 20.00     0.078 C 
HETATM   10  O10 UNL     1     -31.751   6.592   0.684  1.00 20.00    -0.335 OA
HETATM   11  O11 UNL     1     -33.199   5.702   2.304  1.00 20.00    -0.335 OA
ENDROOT
TORSDOF 0
