REMARK  1 active torsions:
REMARK  status: ('A' for Active; 'I' for Inactive)
REMARK    1  A    between atoms: C5_5  and  N8_8 
ROOT
HETATM    1  C1  UNL     1     -32.071   6.088   1.455  1.00 20.00     0.069 A 
HETATM    2  C2  UNL     1     -32.657   5.147   2.201  1.00 20.00     0.095 A 
HETATM    3  C3  UNL     1     -32.598   7.346   2.029  1.00 20.00     0.168 A 
HETATM    4  C6  UNL     1     -33.547   7.063   3.178  1.00 20.00     0.211 A 
HETATM    5  N8  UNL     1     -33.500   5.604   3.191  1.00 20.00    -0.354 N 
HETATM    6  O9  UNL     1     -32.297   8.455   1.617  1.00 20.00    -0.291 OA
ENDROOT
BRANCH   5   7
HETATM    7  C5  UNL     1     -34.201   4.837   4.067  1.00 20.00    -0.002 C 
HETATM    8  C4  UNL     1     -35.376   5.256   4.557  1.00 20.00     0.038 C 
HETATM    9  C7  UNL     1     -33.584   3.525   4.438  1.00 20.00     0.067 C 
ENDBRANCH   5   7
TORSDOF 1
