REMARK  2 active torsions:
REMARK  status: ('A' for Active; 'I' for Inactive)
REMARK    1  A    between atoms: C1_1  and  C7_7 
REMARK    2  A    between atoms: C1_1  and  C9_9 
ROOT
HETATM    1  C2  UNL     1     -32.131   9.694   0.077  1.00 20.00     0.000 C 
HETATM    2  C3  UNL     1     -33.003  10.244   1.200  1.00 20.00     0.001 C 
HETATM    3  C4  UNL     1     -31.143   8.655   0.595  1.00 20.00     0.001 C 
HETATM    4  C5  UNL     1     -33.730   9.127   1.951  1.00 20.00     0.017 C 
HETATM    5  C6  UNL     1     -31.851   7.522   1.339  1.00 20.00     0.017 C 
HETATM    6  C7  UNL     1     -32.783   8.028   2.443  1.00 20.00     0.018 C 
HETATM    7  C8  UNL     1     -31.954   8.553   3.612  1.00 20.00     0.023 C 
ENDROOT
BRANCH   6   8
HETATM    8  C1  UNL     1     -33.562   6.875   3.076  1.00 20.00     0.148 C 
HETATM    9  O10 UNL     1     -33.481   5.737   2.616  1.00 20.00    -0.296 OA
BRANCH   8  10
HETATM   10  C9  UNL     1     -34.413   7.236   4.272  1.00 20.00     0.193 C 
HETATM   11 CL11 UNL     1     -35.835   6.187   4.369  1.00 20.00    -0.123 Cl
ENDBRANCH   8  10
ENDBRANCH   6   8
TORSDOF 2
