REMARK  1 active torsions:
REMARK  status: ('A' for Active; 'I' for Inactive)
REMARK    1  A    between atoms: C3_3  and  C7_7 
ROOT
HETATM    1  C1  UNL     1     -32.839   6.319   1.838  1.00 20.00    -0.070 C 
HETATM    2  C2  UNL     1     -32.353   5.148   1.416  1.00 20.00     0.015 C 
HETATM    3  C4  UNL     1     -31.686   8.116   3.065  1.00 20.00     0.009 C 
HETATM    4  C5  UNL     1     -33.002   8.436   3.797  1.00 20.00     0.006 C 
HETATM    5  C6  UNL     1     -33.392   8.559   1.463  1.00 20.00     0.014 C 
HETATM    6  C7  UNL     1     -34.174   6.566   2.491  1.00 20.00     0.119 C 
HETATM    7  C8  UNL     1     -32.167   7.668   1.676  1.00 20.00     0.015 C 
HETATM    8  C9  UNL     1     -34.082   8.085   2.749  1.00 20.00     0.004 C 
ENDROOT
BRANCH   6   9
HETATM    9  C3  UNL     1     -34.366   5.755   3.747  1.00 20.00     0.181 C 
HETATM   10  O10 UNL     1     -35.046   6.314   4.651  1.00 20.00    -0.647 OA
HETATM   11  O11 UNL     1     -33.819   4.617   3.730  1.00 20.00    -0.647 OA
ENDBRANCH   6   9
TORSDOF 1
