REMARK  0 active torsions:
REMARK  status: ('A' for Active; 'I' for Inactive)
ROOT
HETATM    1  C1  UNL     1     -33.443   5.643   3.055  1.00 20.00     0.251 C 
HETATM    2  C2  UNL     1     -32.950   6.237   1.752  1.00 20.00     0.251 C 
HETATM    3  C3  UNL     1     -34.223   6.742   3.747  1.00 20.00     0.271 C 
HETATM    4  C4  UNL     1     -32.254   7.534   2.114  1.00 20.00     0.271 C 
HETATM    5  F5  UNL     1     -34.257   4.588   2.805  1.00 20.00    -0.242 F 
HETATM    6  F6  UNL     1     -32.057   5.391   1.177  1.00 20.00    -0.242 F 
HETATM    7  F7  UNL     1     -35.414   6.909   3.112  1.00 20.00    -0.235 F 
HETATM    8  F8  UNL     1     -32.254   8.367   1.044  1.00 20.00    -0.235 F 
HETATM    9  S9  UNL     1     -33.211   8.226   3.487  1.00 20.00    -0.089 SA
ENDROOT
TORSDOF 0
