REMARK  1 active torsions:
REMARK  status: ('A' for Active; 'I' for Inactive)
REMARK    1  A    between atoms: C7_7  and  O11_11 
ROOT
HETATM    1  C1  UNL     1     -32.373   9.384   0.479  1.00 20.00    -0.029 C 
HETATM    2  C2  UNL     1     -32.264   6.226   1.076  1.00 20.00    -0.022 C 
HETATM    3  C3  UNL     1     -33.320   6.029   1.871  1.00 20.00     0.002 C 
HETATM    4  C4  UNL     1     -33.006   9.238   1.647  1.00 20.00    -0.018 C 
HETATM    5  C5  UNL     1     -31.243   8.420   0.329  1.00 20.00     0.036 C 
HETATM    6  C6  UNL     1     -31.461   7.432   1.484  1.00 20.00     0.026 C 
HETATM    7  C7  UNL     1     -33.385   7.046   2.964  1.00 20.00     0.155 C 
HETATM    8  C8  UNL     1     -32.401   8.144   2.497  1.00 20.00     0.010 C 
HETATM    9  C9  UNL     1     -31.646   8.765   3.674  1.00 20.00     0.023 C 
ENDROOT
BRANCH   7  10
HETATM   10  O11 UNL     1     -34.698   7.547   3.141  1.00 20.00    -0.386 OA
HETATM   11  C10 UNL     1     -35.505   6.654   3.900  1.00 20.00     0.202 C 
ENDBRANCH   7  10
TORSDOF 1
