REMARK  1 active torsions:
REMARK  status: ('A' for Active; 'I' for Inactive)
REMARK    1  A    between atoms: C1_1  and  C2_2 
ROOT
HETATM    1  C2  UNL     1     -33.464   6.056   2.421  1.00 20.00     0.154 A 
HETATM    2  C3  UNL     1     -33.271   5.340   3.746  1.00 20.00     0.073 A 
HETATM    3  C4  UNL     1     -33.954   6.658   3.693  1.00 20.00     0.259 A 
HETATM    4  C5  UNL     1     -34.045   4.104   4.048  1.00 20.00     0.017 C 
HETATM    5  F7  UNL     1     -33.350   7.776   4.226  1.00 20.00    -0.205 F 
HETATM    6  F8  UNL     1     -35.305   6.769   3.935  1.00 20.00    -0.205 F 
ENDROOT
BRANCH   1   7
HETATM    7  C1  UNL     1     -32.296   6.632   1.748  1.00 20.00     0.229 C 
HETATM    8  O6  UNL     1     -31.978   7.807   1.901  1.00 20.00    -0.279 OA
HETATM    9 CL9  UNL     1     -31.473   5.467   0.755  1.00 20.00    -0.043 Cl
ENDBRANCH   1   7
TORSDOF 1
