REMARK  1 active torsions:
REMARK  status: ('A' for Active; 'I' for Inactive)
REMARK    1  A    between atoms: C4_4  and  O11_11 
ROOT
HETATM    1  C1  UNL     1     -34.703   5.188   4.131  1.00 20.00     0.034 C 
HETATM    2  C2  UNL     1     -34.524   6.517   3.987  1.00 20.00     0.003 C 
HETATM    3  C3  UNL     1     -32.866   4.627   2.617  1.00 20.00     0.017 C 
HETATM    4  C4  UNL     1     -33.726   4.246   3.582  1.00 20.00     0.062 C 
HETATM    5  C5  UNL     1     -32.392   8.179   1.723  1.00 20.00     0.004 C 
HETATM    6  C6  UNL     1     -31.818   6.793   1.503  1.00 20.00     0.065 C 
HETATM    7  C7  UNL     1     -32.971   6.034   2.118  1.00 20.00     0.045 C 
HETATM    8  C8  UNL     1     -33.278   6.971   3.293  1.00 20.00     0.139 C 
HETATM    9  C9  UNL     1     -31.956   9.323   0.869  1.00 20.00     0.065 C 
HETATM   10  N10 UNL     1     -33.278   8.311   2.677  1.00 20.00    -0.289 NA
ENDROOT
BRANCH   4  11
HETATM   11  O11 UNL     1     -33.798   2.970   4.087  1.00 20.00    -0.361 OA
HETATM   12  H22 UNL     1     -33.125   2.412   3.678  1.00 20.00     0.217 HD
ENDBRANCH   4  11
TORSDOF 1
