REMARK  1 active torsions:
REMARK  status: ('A' for Active; 'I' for Inactive)
REMARK    1  A    between atoms: C2_2  and  C3_3 
ROOT
HETATM    1  C1  UNL     1     -33.942   6.537   3.332  1.00 20.00     0.050 C 
HETATM    2  C2  UNL     1     -33.539   7.751   2.944  1.00 20.00     0.082 C 
HETATM    3  C4  UNL     1     -33.184   5.268   3.117  1.00 20.00     0.071 C 
HETATM    4  C5  UNL     1     -35.211   4.937   4.264  1.00 20.00     0.179 C 
HETATM    5  C6  UNL     1     -33.786   4.410   4.210  1.00 20.00     0.012 C 
HETATM    6  C8  UNL     1     -33.697   2.919   3.944  1.00 20.00     0.012 C 
HETATM    7  O10 UNL     1     -35.117   6.354   4.050  1.00 20.00    -0.355 OA
ENDROOT
BRANCH   2   8
HETATM    8  C3  UNL     1     -32.244   7.932   2.236  1.00 20.00     0.147 C 
HETATM    9  C7  UNL     1     -32.081   7.203   0.928  1.00 20.00     0.096 C 
HETATM   10  O9  UNL     1     -31.354   8.656   2.675  1.00 20.00    -0.294 OA
ENDBRANCH   2   8
TORSDOF 1
