REMARK  1 active torsions:
REMARK  status: ('A' for Active; 'I' for Inactive)
REMARK    1  A    between atoms: C5_5  and  O10_10 
ROOT
HETATM    1  C1  UNL     1     -32.861   5.181   1.579  1.00 20.00     0.011 A 
HETATM    2  C2  UNL     1     -33.673   4.738   2.626  1.00 20.00     0.040 A 
HETATM    3  C3  UNL     1     -32.564   6.532   1.506  1.00 20.00    -0.049 A 
HETATM    4  C4  UNL     1     -33.052   7.431   2.461  1.00 20.00    -0.010 A 
HETATM    5  C5  UNL     1     -34.163   5.641   3.583  1.00 20.00     0.104 A 
HETATM    6  C6  UNL     1     -33.848   6.999   3.509  1.00 20.00     0.156 A 
HETATM    7  C7  UNL     1     -31.694   7.231   0.511  1.00 20.00     0.039 C 
HETATM    8  C8  UNL     1     -32.552   8.816   2.194  1.00 20.00     0.042 C 
HETATM    9  C9  UNL     1     -32.111   8.694   0.727  1.00 20.00     0.009 C 
HETATM   10  F11 UNL     1     -34.301   7.861   4.427  1.00 20.00    -0.203 F 
ENDROOT
BRANCH   5  11
HETATM   11  O10 UNL     1     -34.948   5.183   4.598  1.00 20.00    -0.358 OA
HETATM   12  H20 UNL     1     -35.074   4.225   4.519  1.00 20.00     0.217 HD
ENDBRANCH   5  11
TORSDOF 1
