REMARK  2 active torsions:
REMARK  status: ('A' for Active; 'I' for Inactive)
REMARK    1  A    between atoms: C5_5  and  O10_10 
REMARK    2  A    between atoms: C9_9  and  O10_10 
ROOT
HETATM    1  C1  UNL     1     -32.137   9.440   0.271  1.00 20.00     0.012 C 
HETATM    2  C2  UNL     1     -32.123   8.476   0.986  1.00 20.00    -0.110 C 
HETATM    3  C3  UNL     1     -31.825   5.976   1.233  1.00 20.00     0.053 A 
HETATM    4  C4  UNL     1     -32.106   7.325   1.839  1.00 20.00     0.095 A 
HETATM    5  C5  UNL     1     -33.211   6.308   1.706  1.00 20.00     0.139 A 
ENDROOT
BRANCH   5   6
HETATM    6  O10 UNL     1     -33.624   5.677   2.907  1.00 20.00    -0.375 OA
BRANCH   6   7
HETATM    7  C9  UNL     1     -34.645   6.430   3.564  1.00 20.00     0.050 C 
HETATM    8  C6  UNL     1     -35.844   6.546   2.624  1.00 20.00     0.045 C 
HETATM    9  C7  UNL     1     -35.029   5.674   4.834  1.00 20.00     0.045 C 
HETATM   10  C8  UNL     1     -34.086   7.810   3.908  1.00 20.00     0.045 C 
ENDBRANCH   6   7
ENDBRANCH   5   6
TORSDOF 2
