REMARK  2 active torsions:
REMARK  status: ('A' for Active; 'I' for Inactive)
REMARK    1  A    between atoms: C1_1  and  C8_8 
REMARK    2  A    between atoms: C2_2  and  C9_9 
ROOT
HETATM    1  C3  UNL     1     -34.153   4.750   3.865  1.00 20.00     0.082 C 
HETATM    2  C6  UNL     1     -34.810   7.044   4.698  1.00 20.00     0.040 A 
HETATM    3  C7  UNL     1     -35.711   6.714   3.546  1.00 20.00     0.040 A 
HETATM    4  C9  UNL     1     -34.312   6.149   3.589  1.00 20.00     0.112 A 
HETATM    5  N10 UNL     1     -34.025   3.619   4.088  1.00 20.00    -0.195 NA
ENDROOT
BRANCH   4   6
HETATM    6  C2  UNL     1     -33.339   6.676   2.676  1.00 20.00    -0.081 C 
HETATM    7  C1  UNL     1     -32.525   7.119   1.912  1.00 20.00    -0.100 C 
BRANCH   7   8
HETATM    8  C8  UNL     1     -31.534   7.658   0.982  1.00 20.00     0.065 A 
HETATM    9  C4  UNL     1     -31.227   9.115   1.058  1.00 20.00     0.018 A 
HETATM   10  C5  UNL     1     -32.014   8.570  -0.096  1.00 20.00     0.018 A 
ENDBRANCH   7   8
ENDBRANCH   4   6
TORSDOF 2
