REMARK  0 active torsions:
REMARK  status: ('A' for Active; 'I' for Inactive)
ROOT
HETATM    1  C1  UNL     1     -32.660   7.966   2.898  1.00 20.00     0.131 A 
HETATM    2  C2  UNL     1     -32.066   6.140   1.585  1.00 20.00     0.233 A 
HETATM    3  C3  UNL     1     -33.637   7.186   3.388  1.00 20.00     0.010 A 
HETATM    4  C4  UNL     1     -33.765   5.925   2.941  1.00 20.00     0.070 A 
HETATM    5  C5  UNL     1     -34.760   7.007   4.268  1.00 20.00     0.017 A 
HETATM    6  C6  UNL     1     -34.897   5.723   3.818  1.00 20.00     0.033 A 
HETATM    7  N7  UNL     1     -31.831   7.443   1.960  1.00 20.00    -0.253 NA
HETATM    8  N8  UNL     1     -33.031   5.303   2.040  1.00 20.00    -0.241 NA
ENDROOT
TORSDOF 0
