REMARK  0 active torsions:
REMARK  status: ('A' for Active; 'I' for Inactive)
ROOT
HETATM    1  C1  UNL     1     -33.209   6.138   1.805  1.00 20.00     0.110 A 
HETATM    2  C2  UNL     1     -33.831   6.550   2.970  1.00 20.00     0.007 A 
HETATM    3  C3  UNL     1     -33.289   7.770   3.438  1.00 20.00     0.002 A 
HETATM    4  C4  UNL     1     -32.344   8.077   2.545  1.00 20.00     0.048 A 
HETATM    5  C5  UNL     1     -34.852   6.151   3.873  1.00 20.00     0.124 A 
HETATM    6  C6  UNL     1     -31.289   8.753   1.860  1.00 20.00     0.048 A 
HETATM    7  C7  UNL     1     -31.309   7.746   0.939  1.00 20.00     0.099 A 
HETATM    8  C8  UNL     1     -33.986   8.146   4.664  1.00 20.00     0.190 A 
HETATM    9  N9  UNL     1     -34.990   7.007   4.850  1.00 20.00    -0.296 NA
HETATM   10  N10 UNL     1     -32.316   7.127   1.618  1.00 20.00    -0.331 N 
ENDROOT
TORSDOF 0
