REMARK  1 active torsions:
REMARK  status: ('A' for Active; 'I' for Inactive)
REMARK    1  A    between atoms: C3_3  and  C8_8 
ROOT
HETATM    1  C1  UNL     1     -32.108   8.215   1.648  1.00 20.00    -0.025 C 
HETATM    2  C2  UNL     1     -32.057   8.362   2.979  1.00 20.00    -0.024 C 
HETATM    3  C4  UNL     1     -34.244   7.886   2.444  1.00 20.00     0.018 C 
HETATM    4  C5  UNL     1     -33.320   7.370   1.335  1.00 20.00     0.013 C 
HETATM    5  C6  UNL     1     -33.226   7.598   3.559  1.00 20.00     0.024 C 
HETATM    6  C7  UNL     1     -33.089   5.904   1.809  1.00 20.00     0.005 C 
HETATM    7  C8  UNL     1     -32.980   6.066   3.376  1.00 20.00     0.027 C 
HETATM    8  C10 UNL     1     -31.931   5.208   1.103  1.00 20.00     0.012 C 
HETATM    9  C11 UNL     1     -31.675   5.580   4.015  1.00 20.00     0.024 C 
ENDROOT
BRANCH   7  10
HETATM   10  C3  UNL     1     -34.099   5.322   4.068  1.00 20.00     0.132 C 
HETATM   11  C9  UNL     1     -34.050   3.819   4.012  1.00 20.00     0.091 C 
HETATM   12  O12 UNL     1     -35.006   5.917   4.650  1.00 20.00    -0.298 OA
ENDBRANCH   7  10
TORSDOF 1
