REMARK  1 active torsions:
REMARK  status: ('A' for Active; 'I' for Inactive)
REMARK    1  A    between atoms: C3_3  and  C9_9 
ROOT
HETATM    1  C1  UNL     1     -34.054   6.517   2.528  1.00 20.00    -0.030 C 
HETATM    2  C2  UNL     1     -33.173   5.954   1.674  1.00 20.00    -0.029 C 
HETATM    3  C4  UNL     1     -33.748   7.732   3.382  1.00 20.00     0.032 C 
HETATM    4  C5  UNL     1     -31.774   6.488   1.419  1.00 20.00     0.044 C 
HETATM    5  C6  UNL     1     -31.409   9.211   3.568  1.00 20.00     0.007 C 
HETATM    6  C7  UNL     1     -30.451   8.626   2.479  1.00 20.00     0.018 C 
HETATM    7  C8  UNL     1     -32.244   7.929   3.348  1.00 20.00     0.005 C 
HETATM    8  C9  UNL     1     -31.729   7.953   1.867  1.00 20.00     0.027 C 
ENDROOT
BRANCH   8   9
HETATM    9  C3  UNL     1     -32.447   8.880   0.816  1.00 20.00     0.132 C 
HETATM   10  C10 UNL     1     -31.886   8.881  -0.581  1.00 20.00     0.091 C 
HETATM   11  O11 UNL     1     -33.421   9.568   1.120  1.00 20.00    -0.298 OA
ENDBRANCH   8   9
TORSDOF 1
