REMARK  0 active torsions:
REMARK  status: ('A' for Active; 'I' for Inactive)
ROOT
HETATM    1  C1  UNL     1     -33.420   8.434   3.434  1.00 20.00     0.044 A 
HETATM    2  C2  UNL     1     -34.139   7.953   4.464  1.00 20.00     0.014 A 
HETATM    3  C3  UNL     1     -32.981   7.550   2.377  1.00 20.00     0.156 A 
HETATM    4  C4  UNL     1     -33.278   6.241   2.391  1.00 20.00     0.202 A 
HETATM    5  C5  UNL     1     -34.514   6.530   4.598  1.00 20.00     0.224 A 
HETATM    6  C6  UNL     1     -34.050   5.606   3.470  1.00 20.00     0.293 A 
HETATM    7  O7  UNL     1     -35.437   5.883   3.709  1.00 20.00    -0.328 OA
HETATM    8  F8  UNL     1     -32.267   8.080   1.363  1.00 20.00    -0.203 F 
HETATM    9  F9  UNL     1     -32.846   5.468   1.370  1.00 20.00    -0.201 F 
HETATM   10  F10 UNL     1     -33.607   4.349   3.868  1.00 20.00    -0.200 F 
ENDROOT
TORSDOF 0
