REMARK  1 active torsions:
REMARK  status: ('A' for Active; 'I' for Inactive)
REMARK    1  A    between atoms: C3_3  and  C7_7 
ROOT
HETATM    1  C1  UNL     1     -33.816   5.917   2.266  1.00 20.00    -0.020 C 
HETATM    2  C2  UNL     1     -33.649   6.919   3.146  1.00 20.00    -0.086 C 
HETATM    3  C4  UNL     1     -32.492   7.884   3.061  1.00 20.00     0.045 C 
HETATM    4  C5  UNL     1     -31.525   6.365   1.276  1.00 20.00     0.020 C 
HETATM    5  C6  UNL     1     -32.868   5.627   1.130  1.00 20.00     0.005 C 
HETATM    6  C7  UNL     1     -31.693   7.807   1.755  1.00 20.00     0.059 C 
HETATM    7  C8  UNL     1     -34.613   7.146   4.274  1.00 20.00     0.043 C 
HETATM    8  C10 UNL     1     -32.624   4.122   0.998  1.00 20.00     0.014 C 
ENDROOT
BRANCH   6   9
HETATM    9  C3  UNL     1     -32.331   8.641   0.681  1.00 20.00     0.127 C 
HETATM   10  C9  UNL     1     -32.513  10.104   0.979  1.00 20.00     0.091 C 
HETATM   11  O11 UNL     1     -32.686   8.151  -0.391  1.00 20.00    -0.298 OA
ENDBRANCH   6   9
TORSDOF 1
