REMARK  1 active torsions:
REMARK  status: ('A' for Active; 'I' for Inactive)
REMARK    1  A    between atoms: C3_3  and  C8_8 
ROOT
HETATM    1  C1  UNL     1     -31.507   7.429   1.662  1.00 20.00    -0.025 C 
HETATM    2  C2  UNL     1     -31.959   6.189   1.425  1.00 20.00    -0.022 C 
HETATM    3  C4  UNL     1     -33.805   7.579   1.450  1.00 20.00     0.021 C 
HETATM    4  C5  UNL     1     -32.936   7.693   3.665  1.00 20.00     0.063 C 
HETATM    5  C6  UNL     1     -32.658   8.221   2.237  1.00 20.00     0.012 C 
HETATM    6  C7  UNL     1     -33.409   6.152   1.854  1.00 20.00     0.059 C 
HETATM    7  C8  UNL     1     -33.453   6.252   3.397  1.00 20.00     0.202 C 
HETATM    8  F11 UNL     1     -32.608   5.342   3.947  1.00 20.00    -0.231 F 
ENDROOT
BRANCH   7   9
HETATM    9  C3  UNL     1     -34.842   6.030   3.912  1.00 20.00     0.338 C 
HETATM   10  O9  UNL     1     -35.281   4.960   4.305  1.00 20.00    -0.256 OA
HETATM   11  F10 UNL     1     -35.656   7.093   3.983  1.00 20.00    -0.161 F 
ENDBRANCH   7   9
TORSDOF 1
