REMARK  3 active torsions:
REMARK  status: ('A' for Active; 'I' for Inactive)
REMARK    1  A    between atoms: C3_3  and  C8_8 
REMARK    2  A    between atoms: C7_7  and  C8_8 
REMARK    3  A    between atoms: C8_8  and  C9_9 
ROOT
HETATM    1  C1  UNL     1     -32.472  10.009   0.028  1.00 20.00     0.012 C 
HETATM    2  C2  UNL     1     -32.483   9.429   1.079  1.00 20.00    -0.117 C 
HETATM    3  C7  UNL     1     -32.494   8.719   2.370  1.00 20.00     0.105 C 
ENDROOT
BRANCH   3   4
HETATM    4  C8  UNL     1     -33.508   7.560   2.369  1.00 20.00     0.069 C 
BRANCH   4   5
HETATM    5  C3  UNL     1     -32.977   6.364   1.568  1.00 20.00     0.128 C 
HETATM    6  C4  UNL     1     -32.597   6.624   0.132  1.00 20.00     0.091 C 
HETATM    7  O10 UNL     1     -32.874   5.237   2.053  1.00 20.00    -0.298 OA
ENDBRANCH   4   5
BRANCH   4   8
HETATM    8  C9  UNL     1     -33.933   7.083   3.784  1.00 20.00    -0.011 C 
HETATM    9  C5  UNL     1     -33.981   8.208   4.822  1.00 20.00     0.010 C 
HETATM   10  C6  UNL     1     -35.281   6.356   3.746  1.00 20.00     0.010 C 
ENDBRANCH   4   8
ENDBRANCH   3   4
TORSDOF 3
