REMARK  1 active torsions:
REMARK  status: ('A' for Active; 'I' for Inactive)
REMARK    1  A    between atoms: C1_1  and  C2_2 
ROOT
HETATM    1  C2  UNL     1     -33.839   7.478   2.131  1.00 20.00     0.100 A 
HETATM    2  C3  UNL     1     -32.436   7.845   1.725  1.00 20.00     0.104 A 
HETATM    3  C4  UNL     1     -32.923   6.428   1.522  1.00 20.00    -0.017 A 
HETATM    4  C5  UNL     1     -33.270   5.931   0.140  1.00 20.00     0.017 C 
HETATM    5  C6  UNL     1     -32.311   5.366   2.402  1.00 20.00     0.017 C 
HETATM    6 CL9  UNL     1     -32.187   8.940   0.391  1.00 20.00    -0.123 Cl
ENDROOT
BRANCH   1   7
HETATM    7  C1  UNL     1     -34.187   7.436   3.557  1.00 20.00     0.225 C 
HETATM    8  O7  UNL     1     -33.557   8.076   4.394  1.00 20.00    -0.279 OA
HETATM    9 CL8  UNL     1     -35.549   6.402   3.868  1.00 20.00    -0.043 Cl
ENDBRANCH   1   7
TORSDOF 1
