REMARK  0 active torsions:
REMARK  status: ('A' for Active; 'I' for Inactive)
ROOT
HETATM    1  C1  UNL     1     -33.243   5.973   2.332  1.00 20.00     0.080 A 
HETATM    2  C2  UNL     1     -34.449   4.884   4.353  1.00 20.00     0.019 A 
HETATM    3  C3  UNL     1     -34.310   7.456   3.843  1.00 20.00     0.128 A 
HETATM    4  C4  UNL     1     -34.394   5.226   2.889  1.00 20.00     0.053 A 
HETATM    5  C5  UNL     1     -35.068   6.162   3.859  1.00 20.00     0.015 A 
HETATM    6  C6  UNL     1     -32.278   8.311   2.626  1.00 20.00     0.150 C 
HETATM    7  N7  UNL     1     -33.229   7.243   2.885  1.00 20.00    -0.379 N 
HETATM    8  S8  UNL     1     -32.249   5.222   1.246  1.00 20.00    -0.065 SA
ENDROOT
TORSDOF 0
