REMARK  1 active torsions:
REMARK  status: ('A' for Active; 'I' for Inactive)
REMARK    1  A    between atoms: C3_3  and  C7_7 
ROOT
HETATM    1  C1  UNL     1     -32.542   9.906   0.944  1.00 20.00    -0.030 C 
HETATM    2  C2  UNL     1     -31.963   8.903   0.277  1.00 20.00    -0.026 C 
HETATM    3  C4  UNL     1     -32.695   9.639   2.411  1.00 20.00     0.033 C 
HETATM    4  C5  UNL     1     -32.753   6.737   1.382  1.00 20.00     0.021 C 
HETATM    5  C6  UNL     1     -31.644   7.797   1.196  1.00 20.00     0.013 C 
HETATM    6  C7  UNL     1     -32.690   6.974   2.908  1.00 20.00     0.060 C 
HETATM    7  C8  UNL     1     -31.950   8.314   2.629  1.00 20.00     0.008 C 
ENDROOT
BRANCH   6   8
HETATM    8  C3  UNL     1     -34.005   7.016   3.689  1.00 20.00     0.127 C 
HETATM    9  C9  UNL     1     -35.081   6.058   3.255  1.00 20.00     0.091 C 
HETATM   10  O10 UNL     1     -34.173   7.794   4.627  1.00 20.00    -0.298 OA
ENDBRANCH   6   8
TORSDOF 1
