REMARK  1 active torsions:
REMARK  status: ('A' for Active; 'I' for Inactive)
REMARK    1  A    between atoms: C3_3  and  N9_9 
ROOT
HETATM    1  C1  UNL     1     -33.449   7.345   3.179  1.00 20.00     0.096 C 
HETATM    2  C2  UNL     1     -32.583   7.527   2.064  1.00 20.00     0.040 A 
HETATM    3  C3  UNL     1     -32.416   8.547   1.192  1.00 20.00     0.005 A 
HETATM    4  C4  UNL     1     -31.527   6.651   1.445  1.00 20.00     0.057 A 
HETATM    5  C5  UNL     1     -31.320   7.788   0.437  1.00 20.00     0.057 A 
HETATM    6  N8  UNL     1     -34.155   7.198   4.087  1.00 20.00    -0.192 NA
ENDROOT
BRANCH   3   7
HETATM    7  N9  UNL     1     -32.900   9.748   0.947  1.00 20.00    -0.283 NA
HETATM    8  C6  UNL     1     -31.989  10.729   0.335  1.00 20.00     0.110 A 
HETATM    9  C7  UNL     1     -33.079  10.124  -0.465  1.00 20.00     0.110 A 
ENDBRANCH   3   7
TORSDOF 1
