REMARK  1 active torsions:
REMARK  status: ('A' for Active; 'I' for Inactive)
REMARK    1  A    between atoms: C4_4  and  C10_10 
ROOT
HETATM    1  C1  UNL     1     -32.913   6.516   0.247  1.00 20.00     0.174 C 
HETATM    2  C2  UNL     1     -33.337   7.934   0.099  1.00 20.00     0.025 A 
HETATM    3  C3  UNL     1     -33.209   8.559   1.436  1.00 20.00     0.030 A 
HETATM    4  C4  UNL     1     -32.701   7.499   2.362  1.00 20.00     0.130 C 
HETATM    5  C5  UNL     1     -32.407   9.120   0.274  1.00 20.00    -0.035 A 
HETATM    6  C6  UNL     1     -30.913   8.934   0.217  1.00 20.00     0.016 C 
HETATM    7  C7  UNL     1     -32.865  10.438  -0.300  1.00 20.00     0.016 C 
HETATM    8  O11 UNL     1     -32.303   6.380   1.543  1.00 20.00    -0.385 OA
ENDROOT
BRANCH   4   9
HETATM    9  C10 UNL     1     -33.767   7.024   3.340  1.00 20.00     0.007 C 
HETATM   10  C8  UNL     1     -33.886   7.986   4.522  1.00 20.00     0.012 C 
HETATM   11  C9  UNL     1     -35.117   6.872   2.638  1.00 20.00     0.012 C 
ENDBRANCH   4   9
TORSDOF 1
