REMARK  1 active torsions:
REMARK  status: ('A' for Active; 'I' for Inactive)
REMARK    1  A    between atoms: C1_1  and  C5_5 
ROOT
HETATM    1  C2  UNL     1     -31.594   7.412   1.560  1.00 20.00     0.015 C 
HETATM    2  C3  UNL     1     -31.646   8.443   0.434  1.00 20.00     0.021 C 
HETATM    3  C4  UNL     1     -32.896   9.377   2.232  1.00 20.00     0.033 C 
HETATM    4  C5  UNL     1     -32.361   8.034   2.735  1.00 20.00     0.073 C 
HETATM    5  C6  UNL     1     -32.924   9.215   0.717  1.00 20.00     0.083 C 
HETATM    6 CL9  UNL     1     -32.972  10.769  -0.127  1.00 20.00    -0.125 Cl
ENDROOT
BRANCH   4   7
HETATM    7  C1  UNL     1     -33.497   7.152   3.159  1.00 20.00     0.223 C 
HETATM    8  O7  UNL     1     -33.716   6.075   2.612  1.00 20.00    -0.279 OA
HETATM    9 CL8  UNL     1     -34.407   7.843   4.468  1.00 20.00    -0.043 Cl
ENDBRANCH   4   7
TORSDOF 1
