REMARK  1 active torsions:
REMARK  status: ('A' for Active; 'I' for Inactive)
REMARK    1  A    between atoms: C3_3  and  C8_8 
ROOT
HETATM    1  C1  UNL     1     -32.416   7.773   0.874  1.00 20.00    -0.079 C 
HETATM    2  C2  UNL     1     -32.590   8.785   0.021  1.00 20.00    -0.028 C 
HETATM    3  C4  UNL     1     -31.872   7.874   2.277  1.00 20.00     0.039 C 
HETATM    4  C5  UNL     1     -33.942   5.914   1.396  1.00 20.00     0.023 C 
HETATM    5  C6  UNL     1     -31.569   5.672   1.434  1.00 20.00     0.014 C 
HETATM    6  C7  UNL     1     -32.684   6.310   0.603  1.00 20.00     0.015 C 
HETATM    7  C8  UNL     1     -33.447   5.933   2.857  1.00 20.00     0.077 C 
HETATM    8  C9  UNL     1     -31.976   6.399   2.723  1.00 20.00     0.003 C 
HETATM    9  C10 UNL     1     -32.297  10.213   0.344  1.00 20.00     0.036 C 
ENDROOT
BRANCH   7  10
HETATM   10  C3  UNL     1     -34.272   6.802   3.751  1.00 20.00     0.223 C 
HETATM   11  O11 UNL     1     -33.791   7.767   4.338  1.00 20.00    -0.279 OA
HETATM   12 CL12 UNL     1     -35.925   6.273   3.833  1.00 20.00    -0.043 Cl
ENDBRANCH   7  10
TORSDOF 1
