REMARK  1 active torsions:
REMARK  status: ('A' for Active; 'I' for Inactive)
REMARK    1  A    between atoms: C5_5  and  C8_8 
ROOT
HETATM    1  C1  UNL     1     -34.872   5.295   4.074  1.00 20.00    -0.004 C 
HETATM    2  C2  UNL     1     -34.211   4.944   2.817  1.00 20.00    -0.004 C 
HETATM    3  C3  UNL     1     -34.922   6.477   4.727  1.00 20.00    -0.026 C 
HETATM    4  C4  UNL     1     -33.177   5.606   2.259  1.00 20.00    -0.021 C 
HETATM    5  C6  UNL     1     -34.298   7.814   4.348  1.00 20.00     0.033 C 
HETATM    6  C7  UNL     1     -32.606   6.807   2.861  1.00 20.00     0.026 A 
HETATM    7  C8  UNL     1     -32.410   8.207   2.390  1.00 20.00     0.085 A 
HETATM    8  C9  UNL     1     -33.742   7.828   2.967  1.00 20.00     0.011 A 
ENDROOT
BRANCH   7   9
HETATM    9  C5  UNL     1     -32.285   8.472   0.952  1.00 20.00     0.224 C 
HETATM   10  O10 UNL     1     -32.558   9.569   0.472  1.00 20.00    -0.279 OA
HETATM   11 CL11 UNL     1     -31.725   7.080   0.076  1.00 20.00    -0.043 Cl
ENDBRANCH   7   9
TORSDOF 1
