REMARK  1 active torsions:
REMARK  status: ('A' for Active; 'I' for Inactive)
REMARK    1  A    between atoms: C3_3  and  C7_7 
ROOT
HETATM    1  C1  UNL     1     -33.978   7.844   4.438  1.00 20.00     0.346 C 
HETATM    2  C2  UNL     1     -33.130   6.942   2.432  1.00 20.00     0.233 C 
HETATM    3  C3  UNL     1     -33.559   8.313   1.872  1.00 20.00     0.081 C 
HETATM    4  C4  UNL     1     -33.128   5.850   1.360  1.00 20.00     0.044 C 
HETATM    5  C6  UNL     1     -35.330   6.194   3.295  1.00 20.00     0.311 C 
HETATM    6  N8  UNL     1     -33.969   6.626   3.615  1.00 20.00     0.098 N 
HETATM    7  S9  UNL     1     -33.888   9.301   3.362  1.00 20.00    -0.132 SA
ENDROOT
BRANCH   3   8
HETATM    8  C7  UNL     1     -32.497   8.978   1.009  1.00 20.00     0.013 C 
HETATM    9  C5  UNL     1     -32.904  10.354   0.588  1.00 20.00     0.006 C 
ENDBRANCH   3   8
TORSDOF 1
