REMARK  1 active torsions:
REMARK  status: ('A' for Active; 'I' for Inactive)
REMARK    1  A    between atoms: C1_1  and  C8_8 
ROOT
HETATM    1  C2  UNL     1     -32.281   8.502   1.117  1.00 20.00     0.005 C 
HETATM    2  C3  UNL     1     -31.424   7.681   2.092  1.00 20.00     0.006 C 
HETATM    3  C4  UNL     1     -32.997   6.233   1.091  1.00 20.00     0.010 C 
HETATM    4  C5  UNL     1     -34.397   7.776   2.257  1.00 20.00     0.023 C 
HETATM    5  C6  UNL     1     -33.554   7.648   0.970  1.00 20.00    -0.013 C 
HETATM    6  C7  UNL     1     -32.350   6.507   2.457  1.00 20.00     0.003 C 
HETATM    7  C8  UNL     1     -33.568   6.986   3.297  1.00 20.00     0.036 C 
HETATM    8  C9  UNL     1     -33.218   7.825   4.526  1.00 20.00     0.025 C 
ENDROOT
BRANCH   7   9
HETATM    9  C1  UNL     1     -34.320   5.773   3.789  1.00 20.00     0.227 C 
HETATM   10  O10 UNL     1     -33.878   4.637   3.645  1.00 20.00    -0.279 OA
HETATM   11 CL11 UNL     1     -35.824   6.199   4.547  1.00 20.00    -0.043 Cl
ENDBRANCH   7   9
TORSDOF 1
