REMARK  1 active torsions:
REMARK  status: ('A' for Active; 'I' for Inactive)
REMARK    1  A    between atoms: C3_3  and  C7_7 
ROOT
HETATM    1  C1  UNL     1     -32.858   8.655   2.604  1.00 20.00    -0.007 C 
HETATM    2  C2  UNL     1     -32.250   8.258   1.477  1.00 20.00     0.008 C 
HETATM    3  C4  UNL     1     -33.568   7.704   3.523  1.00 20.00     0.042 C 
HETATM    4  C5  UNL     1     -32.241   6.838   0.994  1.00 20.00     0.051 C 
HETATM    5  C6  UNL     1     -33.271   5.963   1.715  1.00 20.00     0.019 C 
HETATM    6  C7  UNL     1     -33.269   6.229   3.221  1.00 20.00     0.076 C 
HETATM    7 CL9  UNL     1     -31.431   9.400   0.472  1.00 20.00    -0.089 Cl
ENDROOT
BRANCH   6   8
HETATM    8  C3  UNL     1     -34.274   5.351   3.906  1.00 20.00     0.223 C 
HETATM    9  O8  UNL     1     -35.432   5.717   4.088  1.00 20.00    -0.279 OA
HETATM   10 CL10 UNL     1     -33.594   3.823   4.377  1.00 20.00    -0.043 Cl
ENDBRANCH   6   8
TORSDOF 1
