REMARK  0 active torsions:
REMARK  status: ('A' for Active; 'I' for Inactive)
ROOT
HETATM    1  C1  UNL     1     -34.008   4.278   3.125  1.00 20.00     0.027 C 
HETATM    2  C2  UNL     1     -34.684   5.008   4.169  1.00 20.00     0.027 C 
HETATM    3  C3  UNL     1     -33.283   5.185   2.367  1.00 20.00     0.012 C 
HETATM    4  C4  UNL     1     -34.343   6.325   3.995  1.00 20.00     0.012 C 
HETATM    5  C5  UNL     1     -32.230   5.084   1.319  1.00 20.00     0.057 C 
HETATM    6  C6  UNL     1     -34.411   7.662   4.622  1.00 20.00     0.059 C 
HETATM    7  C7  UNL     1     -31.760   6.471   0.818  1.00 20.00     0.008 C 
HETATM    8  C8  UNL     1     -33.228   8.397   3.906  1.00 20.00     0.032 C 
HETATM    9  C9  UNL     1     -31.712   7.544   1.930  1.00 20.00     0.026 C 
HETATM   10  C10 UNL     1     -33.106   7.712   2.530  1.00 20.00     0.090 C 
HETATM   11  N11 UNL     1     -33.642   6.396   2.840  1.00 20.00    -0.349 N 
ENDROOT
TORSDOF 0
