REMARK  1 active torsions:
REMARK  status: ('A' for Active; 'I' for Inactive)
REMARK    1  A    between atoms: C1_1  and  C6_6 
ROOT
HETATM    1  C2  UNL     1     -33.734   6.769   3.988  1.00 20.00     0.019 C 
HETATM    2  C3  UNL     1     -33.215   5.187   2.070  1.00 20.00     0.019 C 
HETATM    3  C4  UNL     1     -33.525   7.851   2.925  1.00 20.00     0.080 C 
HETATM    4  C5  UNL     1     -32.405   6.246   1.318  1.00 20.00     0.080 C 
HETATM    5  C6  UNL     1     -33.186   5.394   3.582  1.00 20.00     0.072 C 
HETATM    6  C7  UNL     1     -32.307   7.567   2.068  1.00 20.00     0.243 C 
HETATM    7  F9  UNL     1     -31.205   7.550   2.864  1.00 20.00    -0.206 F 
HETATM    8  F10 UNL     1     -32.119   8.576   1.182  1.00 20.00    -0.206 F 
ENDROOT
BRANCH   5   9
HETATM    9  C1  UNL     1     -33.979   4.310   4.247  1.00 20.00     0.223 C 
HETATM   10  O8  UNL     1     -35.172   4.448   4.502  1.00 20.00    -0.279 OA
HETATM   11 CL11 UNL     1     -33.013   2.906   4.585  1.00 20.00    -0.043 Cl
ENDBRANCH   5   9
TORSDOF 1
