REMARK  0 active torsions:
REMARK  status: ('A' for Active; 'I' for Inactive)
ROOT
HETATM    1  C1  UNL     1     -33.963   4.556   3.842  1.00 20.00     0.095 C 
HETATM    2  C2  UNL     1     -34.534   7.509   4.783  1.00 20.00     0.005 C 
HETATM    3  C3  UNL     1     -31.541   6.756   1.087  1.00 20.00     0.032 C 
HETATM    4  C4  UNL     1     -35.374   6.595   3.879  1.00 20.00     0.051 C 
HETATM    5  C5  UNL     1     -33.447   8.231   3.984  1.00 20.00     0.036 C 
HETATM    6  C6  UNL     1     -31.690   7.840   2.157  1.00 20.00     0.037 C 
HETATM    7  C7  UNL     1     -32.644   5.736   1.372  1.00 20.00     0.275 C 
HETATM    8  C8  UNL     1     -34.518   5.645   3.015  1.00 20.00     0.329 C 
HETATM    9  C9  UNL     1     -32.638   7.224   3.175  1.00 20.00     0.224 C 
HETATM   10  N10 UNL     1     -33.526   3.700   4.492  1.00 20.00    -0.195 NA
HETATM   11  N11 UNL     1     -33.513   6.437   2.307  1.00 20.00     0.111 N 
ENDROOT
TORSDOF 0
