REMARK  2 active torsions:
REMARK  status: ('A' for Active; 'I' for Inactive)
REMARK    1  A    between atoms: C5_5  and  C8_8 
REMARK    2  A    between atoms: C8_8  and  N10_10 
ROOT
HETATM    1  C1  UNL     1     -34.682   7.024   4.575  1.00 20.00     0.135 A 
HETATM    2  C2  UNL     1     -33.849   7.620   3.657  1.00 20.00     0.112 A 
HETATM    3  C3  UNL     1     -34.342   5.552   3.075  1.00 20.00     0.210 A 
HETATM    4  N9  UNL     1     -34.985   5.737   4.207  1.00 20.00    -0.255 NA
HETATM    5  N10 UNL     1     -33.640   6.664   2.702  1.00 20.00    -0.338 N 
ENDROOT
BRANCH   5   6
HETATM    6  C8  UNL     1     -32.800   6.808   1.477  1.00 20.00     0.047 C 
HETATM    7  C6  UNL     1     -31.587   5.844   1.433  1.00 20.00     0.043 C 
HETATM    8  C7  UNL     1     -33.679   6.468   0.248  1.00 20.00     0.043 C 
BRANCH   6   9
HETATM    9  C5  UNL     1     -32.198   8.213   1.451  1.00 20.00    -0.007 C 
HETATM   10  C4  UNL     1     -32.399   9.169   0.536  1.00 20.00     0.009 C 
ENDBRANCH   6   9
ENDBRANCH   5   6
TORSDOF 2
