REMARK  2 active torsions:
REMARK  status: ('A' for Active; 'I' for Inactive)
REMARK    1  A    between atoms: C2_2  and  C5_5 
REMARK    2  A    between atoms: C3_3  and  C6_6 
REMARK       I    between atoms: C3_3  and  N9_9 
ROOT
HETATM    1  C4  UNL     1     -32.297   9.484   2.715  1.00 20.00     0.024 A 
HETATM    2  C5  UNL     1     -31.665   8.883   1.490  1.00 20.00     0.021 A 
HETATM    3  C6  UNL     1     -31.994   8.031   2.666  1.00 20.00     0.086 A 
ENDROOT
BRANCH   3   4
HETATM    4  C3  UNL     1     -33.155   7.069   2.602  1.00 20.00     0.224 C 
HETATM    5  N9  UNL     1     -34.137   7.208   3.583  1.00 20.00    -0.360 N 
HETATM    6  C7  UNL     1     -35.311   6.345   3.638  1.00 20.00     0.152 C 
HETATM    7  C8  UNL     1     -34.061   8.227   4.627  1.00 20.00     0.152 C 
HETATM    8  O10 UNL     1     -33.185   6.222   1.706  1.00 20.00    -0.273 OA
ENDBRANCH   3   4
BRANCH   2   9
HETATM    9  C2  UNL     1     -32.436   8.827   0.256  1.00 20.00    -0.031 C 
HETATM   10  C1  UNL     1     -33.028   9.887  -0.305  1.00 20.00     0.007 C 
ENDBRANCH   2   9
TORSDOF 2
