REMARK  0 active torsions:
REMARK  status: ('A' for Active; 'I' for Inactive)
ROOT
HETATM    1  C1  UNL     1     -34.252   6.394   4.535  1.00 20.00     0.057 C 
HETATM    2  C2  UNL     1     -32.333   8.465   2.151  1.00 20.00    -0.019 C 
HETATM    3  C3  UNL     1     -33.080   7.520   2.737  1.00 20.00    -0.051 C 
HETATM    4  C4  UNL     1     -33.751   7.530   4.018  1.00 20.00    -0.052 C 
HETATM    5  C5  UNL     1     -34.061   5.081   3.856  1.00 20.00     0.150 C 
HETATM    6  C6  UNL     1     -31.827   8.015   0.818  1.00 20.00     0.028 C 
HETATM    7  C7  UNL     1     -33.138   5.019   2.653  1.00 20.00     0.092 C 
HETATM    8  C8  UNL     1     -32.074   6.505   0.857  1.00 20.00     0.013 C 
HETATM    9  C9  UNL     1     -33.218   6.312   1.856  1.00 20.00     0.026 C 
HETATM   10  C10 UNL     1     -33.893   8.839   4.741  1.00 20.00     0.049 C 
HETATM   11  O11 UNL     1     -34.589   4.071   4.318  1.00 20.00    -0.293 OA
ENDROOT
TORSDOF 0
