REMARK  0 active torsions:
REMARK  status: ('A' for Active; 'I' for Inactive)
ROOT
HETATM    1  C1  UNL     1     -32.503   6.343   1.638  1.00 20.00    -0.054 C 
HETATM    2  C2  UNL     1     -33.584   7.683   3.221  1.00 20.00     0.226 C 
HETATM    3  C3  UNL     1     -31.881   5.266   1.140  1.00 20.00     0.017 C 
HETATM    4  C4  UNL     1     -33.715   6.334   2.537  1.00 20.00     0.104 C 
HETATM    5  C5  UNL     1     -32.003   7.748   1.449  1.00 20.00     0.109 C 
HETATM    6  C6  UNL     1     -33.793   5.205   3.554  1.00 20.00     0.025 C 
HETATM    7  C7  UNL     1     -32.428   8.352   0.118  1.00 20.00     0.037 C 
HETATM    8  N8  UNL     1     -32.627   8.429   2.551  1.00 20.00    -0.352 N 
HETATM    9  O9  UNL     1     -34.240   8.051   4.185  1.00 20.00    -0.273 OA
HETATM   10  H20 UNL     1     -32.386   9.379   2.817  1.00 20.00     0.163 HD
ENDROOT
TORSDOF 0
