REMARK  1 active torsions:
REMARK  status: ('A' for Active; 'I' for Inactive)
REMARK    1  A    between atoms: C4_4  and  C5_5 
ROOT
HETATM    1  C1  UNL     1     -31.519   6.094   1.388  1.00 20.00    -0.022 C 
HETATM    2  C2  UNL     1     -32.799   5.707   1.222  1.00 20.00    -0.021 C 
HETATM    3  C3  UNL     1     -32.203   7.589   3.230  1.00 20.00    -0.006 C 
HETATM    4  C4  UNL     1     -33.481   7.201   3.053  1.00 20.00     0.009 C 
HETATM    5  C6  UNL     1     -32.056   8.446   0.931  1.00 20.00     0.013 C 
HETATM    6  C7  UNL     1     -33.541   7.995   0.736  1.00 20.00     0.014 C 
HETATM    7  C8  UNL     1     -31.367   7.502   1.956  1.00 20.00     0.031 C 
HETATM    8  C9  UNL     1     -33.823   6.760   1.638  1.00 20.00     0.045 C 
ENDROOT
BRANCH   4   9
HETATM    9  C5  UNL     1     -34.452   7.218   4.135  1.00 20.00     0.248 C 
HETATM   10  O10 UNL     1     -34.340   8.058   5.041  1.00 20.00    -0.274 OA
HETATM   11 CL11 UNL     1     -35.740   6.027   4.080  1.00 20.00    -0.039 Cl
ENDBRANCH   4   9
TORSDOF 1
