REMARK  2 active torsions:
REMARK  status: ('A' for Active; 'I' for Inactive)
REMARK    1  A    between atoms: C3_3  and  C6_6 
REMARK    2  A    between atoms: C3_3  and  O10_10 
ROOT
HETATM    1  C1  UNL     1     -33.793   4.517   4.074  1.00 20.00    -0.002 C 
HETATM    2  C2  UNL     1     -34.931   5.070   4.508  1.00 20.00     0.130 C 
HETATM    3  C4  UNL     1     -32.896   5.222   3.106  1.00 20.00     0.046 C 
HETATM    4  C5  UNL     1     -34.422   7.160   3.548  1.00 20.00     0.189 C 
HETATM    5  C6  UNL     1     -33.615   6.420   2.482  1.00 20.00     0.113 C 
HETATM    6  O9  UNL     1     -35.393   6.320   4.186  1.00 20.00    -0.362 OA
ENDROOT
BRANCH   5   7
HETATM    7  C3  UNL     1     -32.631   7.352   1.848  1.00 20.00     0.265 C 
HETATM    8  O8  UNL     1     -31.420   7.175   1.849  1.00 20.00    -0.265 OA
BRANCH   7   9
HETATM    9  O10 UNL     1     -33.295   8.401   1.284  1.00 20.00    -0.326 OA
HETATM   10  C7  UNL     1     -32.470   9.376   0.638  1.00 20.00     0.213 C 
ENDBRANCH   7   9
ENDBRANCH   5   7
TORSDOF 2
