REMARK  4 active torsions:
REMARK  status: ('A' for Active; 'I' for Inactive)
REMARK    1  A    between atoms: C1_1  and  C7_7 
REMARK    2  A    between atoms: C6_6  and  O10_10 
REMARK    3  A    between atoms: C7_7  and  C8_8 
REMARK    4  A    between atoms: C7_7  and  O10_10 
ROOT
HETATM    1  C7  UNL     1     -33.698   5.671   2.534  1.00 20.00     0.193 C 
ENDROOT
BRANCH   1   2
HETATM    2  C1  UNL     1     -34.142   6.843   3.404  1.00 20.00     0.152 C 
HETATM    3  C2  UNL     1     -35.381   6.651   4.240  1.00 20.00     0.093 C 
HETATM    4  O9  UNL     1     -33.522   7.907   3.433  1.00 20.00    -0.296 OA
ENDBRANCH   1   2
BRANCH   1   5
HETATM    5  C8  UNL     1     -32.939   6.123   1.272  1.00 20.00     0.014 C 
HETATM    6  C4  UNL     1     -31.476   6.476   1.563  1.00 20.00     0.012 C 
HETATM    7  C5  UNL     1     -32.994   5.037   0.193  1.00 20.00     0.012 C 
ENDBRANCH   1   5
BRANCH   1   8
HETATM    8  O10 UNL     1     -32.881   4.807   3.310  1.00 20.00    -0.378 OA
BRANCH   8   9
HETATM    9  C6  UNL     1     -33.661   3.957   4.141  1.00 20.00     0.164 C 
HETATM   10  C3  UNL     1     -32.735   3.065   4.940  1.00 20.00     0.033 C 
ENDBRANCH   8   9
ENDBRANCH   1   8
TORSDOF 4
