REMARK  1 active torsions:
REMARK  status: ('A' for Active; 'I' for Inactive)
REMARK    1  A    between atoms: C9_9  and  O10_10 
ROOT
HETATM    1  C1  UNL     1     -32.517   9.541   0.012  1.00 20.00     0.012 C 
HETATM    2  C2  UNL     1     -32.323   8.812   0.945  1.00 20.00    -0.112 C 
HETATM    3  C3  UNL     1     -34.795   7.376   3.178  1.00 20.00     0.007 C 
HETATM    4  C4  UNL     1     -34.364   6.801   1.821  1.00 20.00     0.009 C 
HETATM    5  C5  UNL     1     -32.576   8.504   3.428  1.00 20.00     0.024 C 
HETATM    6  C6  UNL     1     -32.086   7.921   2.085  1.00 20.00     0.071 C 
HETATM    7  C7  UNL     1     -33.480   7.384   3.980  1.00 20.00     0.016 C 
HETATM    8  C8  UNL     1     -32.846   6.577   2.004  1.00 20.00     0.030 C 
HETATM    9  C9  UNL     1     -32.766   6.129   3.470  1.00 20.00     0.127 C 
ENDROOT
BRANCH   9  10
HETATM   10  O10 UNL     1     -33.477   4.940   3.743  1.00 20.00    -0.395 OA
HETATM   11  H22 UNL     1     -32.953   4.201   3.386  1.00 20.00     0.210 HD
ENDBRANCH   9  10
TORSDOF 1
