REMARK  1 active torsions:
REMARK  status: ('A' for Active; 'I' for Inactive)
REMARK    1  A    between atoms: C1_1  and  C4_4 
ROOT
HETATM    1  C2  UNL     1     -32.349   8.796  -0.307  1.00 20.00     0.014 A 
HETATM    2  C3  UNL     1     -32.785   9.729   0.783  1.00 20.00     0.014 A 
HETATM    3  C4  UNL     1     -31.992   8.496   1.124  1.00 20.00     0.066 A 
ENDROOT
BRANCH   3   4
HETATM    4  C1  UNL     1     -32.655   7.384   1.814  1.00 20.00     0.193 C 
HETATM    5  O5  UNL     1     -32.648   6.246   1.370  1.00 20.00    -0.286 OA
HETATM    6  I6  UNL     1     -33.648   7.709   3.606  1.00 20.00    -0.001 I 
ENDBRANCH   3   4
TORSDOF 1
