REMARK  2 active torsions:
REMARK  status: ('A' for Active; 'I' for Inactive)
REMARK    1  A    between atoms: C3_3  and  C4_4 
REMARK    2  A    between atoms: C3_3  and  O10_10 
ROOT
HETATM    1  C1  UNL     1     -32.649   7.568   1.660  1.00 20.00    -0.065 A 
HETATM    2  C2  UNL     1     -32.325   8.831   1.482  1.00 20.00    -0.027 C 
HETATM    3  C4  UNL     1     -32.819   6.520   2.592  1.00 20.00     0.122 A 
HETATM    4  C5  UNL     1     -33.051   6.366   1.043  1.00 20.00     0.029 A 
HETATM    5  C6  UNL     1     -32.300   9.530   0.150  1.00 20.00     0.036 C 
HETATM    6  C7  UNL     1     -32.105   5.565   0.222  1.00 20.00     0.016 C 
ENDROOT
BRANCH   3   7
HETATM    7  C3  UNL     1     -33.980   6.638   3.474  1.00 20.00     0.267 C 
HETATM    8  O9  UNL     1     -34.529   7.697   3.746  1.00 20.00    -0.265 OA
BRANCH   7   9
HETATM    9  O10 UNL     1     -34.334   5.403   3.930  1.00 20.00    -0.326 OA
HETATM   10  C8  UNL     1     -35.462   5.372   4.810  1.00 20.00     0.213 C 
ENDBRANCH   7   9
ENDBRANCH   3   7
TORSDOF 2
