REMARK  1 active torsions:
REMARK  status: ('A' for Active; 'I' for Inactive)
REMARK    1  A    between atoms: C6_6  and  C7_7 
ROOT
HETATM    1  C1  UNL     1     -33.129   5.770   2.240  1.00 20.00    -0.003 C 
HETATM    2  C2  UNL     1     -32.803   6.876   1.345  1.00 20.00     0.015 C 
HETATM    3  C3  UNL     1     -32.480   8.537   3.095  1.00 20.00     0.011 C 
HETATM    4  C4  UNL     1     -33.953   5.681   3.302  1.00 20.00    -0.026 C 
HETATM    5  C5  UNL     1     -33.712   8.787   3.568  1.00 20.00    -0.021 C 
HETATM    6  C6  UNL     1     -32.436   8.121   1.709  1.00 20.00     0.009 C 
HETATM    7  C8  UNL     1     -34.906   6.679   3.930  1.00 20.00     0.035 C 
HETATM    8  C9  UNL     1     -34.309   7.921   4.650  1.00 20.00     0.007 C 
HETATM    9  C11 UNL     1     -33.385   7.541   5.808  1.00 20.00     0.014 C 
ENDROOT
BRANCH   6  10
HETATM   10  C7  UNL     1     -32.056   9.075   0.664  1.00 20.00     0.155 C 
HETATM   11  C10 UNL     1     -31.434   8.532  -0.596  1.00 20.00     0.096 C 
HETATM   12  O12 UNL     1     -32.236  10.283   0.825  1.00 20.00    -0.293 OA
ENDBRANCH   6  10
TORSDOF 1
