REMARK  0 active torsions:
REMARK  status: ('A' for Active; 'I' for Inactive)
ROOT
HETATM    1  C1  UNL     1     -32.970   6.893   2.720  1.00 20.00     0.007 C 
HETATM    2  C2  UNL     1     -34.032   5.257   3.940  1.00 20.00     0.226 C 
HETATM    3  C3  UNL     1     -32.137   7.397   1.805  1.00 20.00     0.038 C 
HETATM    4  C4  UNL     1     -33.960   7.653   3.560  1.00 20.00     0.043 C 
HETATM    5  C5  UNL     1     -34.813   6.533   4.206  1.00 20.00     0.083 C 
HETATM    6  C6  UNL     1     -33.259   8.496   4.626  1.00 20.00     0.017 C 
HETATM    7  C7  UNL     1     -36.192   6.421   3.565  1.00 20.00     0.020 C 
HETATM    8  N8  UNL     1     -33.035   5.567   3.032  1.00 20.00    -0.331 N 
HETATM    9  O9  UNL     1     -34.287   4.159   4.411  1.00 20.00    -0.273 OA
HETATM   10  H20 UNL     1     -32.408   4.878   2.631  1.00 20.00     0.168 HD
ENDROOT
TORSDOF 0
