REMARK  0 active torsions:
REMARK  status: ('A' for Active; 'I' for Inactive)
ROOT
HETATM    1  C1  UNL     1     -32.641   7.776   3.716  1.00 20.00    -0.013 C 
HETATM    2  C2  UNL     1     -32.086   7.499   2.516  1.00 20.00     0.004 C 
HETATM    3  C3  UNL     1     -33.637   5.073   2.968  1.00 20.00     0.341 C 
HETATM    4  C4  UNL     1     -33.986   7.175   4.116  1.00 20.00     0.127 C 
HETATM    5  C5  UNL     1     -34.326   6.829   1.723  1.00 20.00     0.137 C 
HETATM    6  C6  UNL     1     -32.841   6.622   1.525  1.00 20.00     0.169 C 
HETATM    7  N7  UNL     1     -34.398   6.259   3.047  1.00 20.00    -0.222 NA
HETATM    8  O8  UNL     1     -33.666   4.109   3.718  1.00 20.00    -0.245 OA
HETATM    9  O9  UNL     1     -32.720   5.236   1.938  1.00 20.00    -0.298 OA
ENDROOT
TORSDOF 0
