REMARK  2 active torsions:
REMARK  status: ('A' for Active; 'I' for Inactive)
REMARK    1  A    between atoms: C3_3  and  C10_10 
REMARK    2  A    between atoms: C7_7  and  O11_11 
ROOT
HETATM    1  C1  UNL     1     -32.795   9.455  -0.486  1.00 20.00     0.012 C 
HETATM    2  C2  UNL     1     -32.388   8.964   0.532  1.00 20.00    -0.113 C 
HETATM    3  C10 UNL     1     -31.882   8.373   1.772  1.00 20.00     0.127 C 
ENDROOT
BRANCH   3   4
HETATM    4  C3  UNL     1     -32.828   7.332   2.264  1.00 20.00    -0.060 C 
HETATM    5  C4  UNL     1     -33.466   7.279   3.446  1.00 20.00    -0.052 C 
HETATM    6  C7  UNL     1     -34.390   6.100   3.520  1.00 20.00     0.147 C 
HETATM    7  C8  UNL     1     -33.383   8.216   4.602  1.00 20.00     0.046 C 
HETATM    8  C5  UNL     1     -33.949   5.236   2.341  1.00 20.00     0.045 C 
HETATM    9  C6  UNL     1     -33.251   6.196   1.364  1.00 20.00     0.014 C 
HETATM   10  C9  UNL     1     -32.112   5.504   0.623  1.00 20.00     0.015 C 
BRANCH   6  11
HETATM   11  O11 UNL     1     -35.730   6.538   3.363  1.00 20.00    -0.391 OA
HETATM   12  H25 UNL     1     -36.294   5.749   3.417  1.00 20.00     0.210 HD
ENDBRANCH   6  11
ENDBRANCH   3   4
TORSDOF 2
