REMARK  2 active torsions:
REMARK  status: ('A' for Active; 'I' for Inactive)
REMARK    1  A    between atoms: C1_1  and  C6_6 
REMARK    2  A    between atoms: C7_7  and  C9_9 
ROOT
HETATM    1  C2  UNL     1     -33.988   7.696   4.193  1.00 20.00     0.012 C 
HETATM    2  C3  UNL     1     -33.345   5.884   2.558  1.00 20.00     0.012 C 
HETATM    3  C4  UNL     1     -33.256   8.729   3.339  1.00 20.00     0.005 C 
HETATM    4  C5  UNL     1     -32.610   6.914   1.702  1.00 20.00     0.005 C 
HETATM    5  C6  UNL     1     -34.479   6.528   3.345  1.00 20.00     0.047 C 
HETATM    6  C7  UNL     1     -32.106   8.094   2.544  1.00 20.00    -0.015 C 
ENDROOT
BRANCH   5   7
HETATM    7  C1  UNL     1     -35.040   5.480   4.287  1.00 20.00     0.235 C 
HETATM    8  O10 UNL     1     -34.368   4.573   4.767  1.00 20.00    -0.306 OA
ENDBRANCH   5   7
BRANCH   6   9
HETATM    9  C9  UNL     1     -31.423   9.135   1.659  1.00 20.00     0.000 C 
HETATM   10  C8  UNL     1     -32.366   9.708   0.652  1.00 20.00     0.005 C 
ENDBRANCH   6   9
TORSDOF 2
