REMARK  1 active torsions:
REMARK  status: ('A' for Active; 'I' for Inactive)
REMARK    1  A    between atoms: C1_1  and  C3_3 
ROOT
HETATM    1  C2  UNL     1     -33.727   7.350   4.483  1.00 20.00     0.030 A 
HETATM    2  C3  UNL     1     -34.091   7.197   3.030  1.00 20.00     0.070 A 
HETATM    3  C4  UNL     1     -34.640   6.237   4.054  1.00 20.00     0.070 A 
HETATM    4 BR7  UNL     1     -33.986   4.447   4.169  1.00 20.00    -0.090 Br
ENDROOT
BRANCH   2   5
HETATM    5  C1  UNL     1     -33.059   6.793   2.068  1.00 20.00     0.128 C 
HETATM    6  C5  UNL     1     -31.792   7.605   2.053  1.00 20.00     0.091 C 
HETATM    7  O6  UNL     1     -33.221   5.836   1.312  1.00 20.00    -0.298 OA
ENDBRANCH   2   5
TORSDOF 1
