REMARK  1 active torsions:
REMARK  status: ('A' for Active; 'I' for Inactive)
REMARK    1  A    between atoms: C2_2  and  C8_8 
ROOT
HETATM    1  C1  UNL     1     -33.355   6.037   1.933  1.00 20.00     0.136 C 
HETATM    2  C3  UNL     1     -32.032   6.638   1.531  1.00 20.00     0.079 C 
HETATM    3  C4  UNL     1     -32.097   8.161   1.458  1.00 20.00     0.007 C 
HETATM    4  C5  UNL     1     -33.011   8.816   2.500  1.00 20.00     0.002 C 
HETATM    5  C6  UNL     1     -33.304   7.903   3.685  1.00 20.00     0.018 C 
HETATM    6  C7  UNL     1     -35.434   6.448   3.413  1.00 20.00     0.030 A 
HETATM    7  C8  UNL     1     -34.469   5.680   4.273  1.00 20.00     0.064 A 
HETATM    8  C9  UNL     1     -33.943   6.614   3.193  1.00 20.00     0.031 A 
HETATM    9  O10 UNL     1     -33.891   5.127   1.310  1.00 20.00    -0.297 OA
ENDROOT
BRANCH   7  10
HETATM   10  C2  UNL     1     -34.369   4.223   4.130  1.00 20.00     0.236 C 
HETATM   11  O11 UNL     1     -33.384   3.576   4.471  1.00 20.00    -0.306 OA
ENDBRANCH   7  10
TORSDOF 1
