REMARK  0 active torsions:
REMARK  status: ('A' for Active; 'I' for Inactive)
ROOT
HETATM    1  C1  UNL     1     -33.741   5.320   2.776  1.00 20.00     0.057 C 
HETATM    2  C2  UNL     1     -31.450   7.704   1.126  1.00 20.00    -0.019 C 
HETATM    3  C3  UNL     1     -32.485   7.114   1.737  1.00 20.00    -0.051 C 
HETATM    4  C4  UNL     1     -32.774   5.709   1.928  1.00 20.00    -0.052 C 
HETATM    5  C5  UNL     1     -34.486   6.306   3.611  1.00 20.00     0.150 C 
HETATM    6  C6  UNL     1     -31.561   9.194   1.176  1.00 20.00     0.028 C 
HETATM    7  C7  UNL     1     -34.016   7.747   3.614  1.00 20.00     0.092 C 
HETATM    8  C8  UNL     1     -32.634   9.416   2.244  1.00 20.00     0.013 C 
HETATM    9  C9  UNL     1     -33.466   8.130   2.248  1.00 20.00     0.026 C 
HETATM   10  C10 UNL     1     -31.985   4.704   1.138  1.00 20.00     0.049 C 
HETATM   11  O11 UNL     1     -35.409   5.925   4.328  1.00 20.00    -0.293 OA
ENDROOT
TORSDOF 0
