REMARK  1 active torsions:
REMARK  status: ('A' for Active; 'I' for Inactive)
REMARK    1  A    between atoms: C3_3  and  C6_6 
ROOT
HETATM    1  C1  UNL     1     -35.161   4.931   4.859  1.00 20.00    -0.024 C 
HETATM    2  C2  UNL     1     -34.016   4.321   4.500  1.00 20.00    -0.083 C 
HETATM    3  C4  UNL     1     -35.641   6.241   4.303  1.00 20.00     0.032 C 
HETATM    4  C5  UNL     1     -33.078   4.896   3.444  1.00 20.00     0.021 C 
HETATM    5  C6  UNL     1     -33.740   6.071   2.682  1.00 20.00     0.066 C 
HETATM    6  C7  UNL     1     -34.548   7.039   3.569  1.00 20.00    -0.003 C 
HETATM    7  C8  UNL     1     -33.639   2.991   5.095  1.00 20.00     0.043 C 
HETATM    8  C10 UNL     1     -31.698   5.216   4.036  1.00 20.00     0.015 C 
HETATM    9  C11 UNL     1     -33.727   7.853   4.576  1.00 20.00     0.011 C 
ENDROOT
BRANCH   5  10
HETATM   10  C3  UNL     1     -32.792   6.783   1.760  1.00 20.00     0.128 C 
HETATM   11  C9  UNL     1     -32.593   6.181   0.396  1.00 20.00     0.091 C 
HETATM   12  O12 UNL     1     -32.207   7.810   2.103  1.00 20.00    -0.298 OA
ENDBRANCH   5  10
TORSDOF 1
