REMARK  1 active torsions:
REMARK  status: ('A' for Active; 'I' for Inactive)
REMARK    1  A    between atoms: CA_2  and  C_3 
ROOT
ATOM      1  N   GLY A   1     -33.977   7.823   4.103  1.00 20.00    -0.249 NA
ATOM      2  CA  GLY A   1     -33.154   7.387   3.083  1.00 20.00     0.122 A 
HETATM    3  C1  UNK A   1     -34.869   6.891   4.357  1.00 20.00     0.168 A 
HETATM    4  C2  UNK A   1     -33.432   6.134   2.578  1.00 20.00     0.104 A 
HETATM    5  S3  UNK A   1     -32.573   5.376   1.329  1.00 20.00    -0.070 SA
HETATM    6  S4  UNK A   1     -34.775   5.464   3.408  1.00 20.00    -0.069 SA
ENDROOT
BRANCH   2   7
ATOM      7  C   GLY A   1     -32.098   8.267   2.646  1.00 20.00     0.292 C 
ATOM      8  O   GLY A   1     -31.299   7.982   1.740  1.00 20.00    -0.300 OA
ENDBRANCH   2   7
TORSDOF 1
