REMARK  0 active torsions:
REMARK  status: ('A' for Active; 'I' for Inactive)
ROOT
HETATM    1  C1  UNL     1     -32.379   8.092   2.433  1.00 20.00     0.041 A 
HETATM    2  C2  UNL     1     -33.466   7.582   3.203  1.00 20.00    -0.008 A 
HETATM    3  C3  UNL     1     -32.032   7.010   1.691  1.00 20.00     0.041 A 
HETATM    4  C4  UNL     1     -33.696   6.262   2.881  1.00 20.00     0.064 A 
HETATM    5  C5  UNL     1     -31.320   6.216   0.737  1.00 20.00     0.047 A 
HETATM    6  C6  UNL     1     -34.769   5.762   3.642  1.00 20.00     0.141 A 
HETATM    7  C7  UNL     1     -32.146   5.178   1.061  1.00 20.00     0.100 A 
HETATM    8  C8  UNL     1     -34.448   7.961   4.233  1.00 20.00     0.189 A 
HETATM    9  N9  UNL     1     -35.257   6.673   4.444  1.00 20.00    -0.295 NA
HETATM   10  N10 UNL     1     -32.799   5.962   1.958  1.00 20.00    -0.320 N 
ENDROOT
TORSDOF 0
