REMARK  3 active torsions:
REMARK  status: ('A' for Active; 'I' for Inactive)
REMARK    1  A    between atoms: C1_1  and  C2_2 
REMARK    2  A    between atoms: C1_1  and  O11_11 
REMARK    3  A    between atoms: C8_8  and  N9_9 
ROOT
HETATM    1  C2  UNL     1     -32.290   7.221   1.833  1.00 20.00     0.355 A 
HETATM    2  C3  UNL     1     -32.647   5.771   1.577  1.00 20.00     0.264 A 
HETATM    3  C4  UNL     1     -32.750   5.215   0.199  1.00 20.00     0.046 C 
HETATM    4  N9  UNL     1     -33.652   6.724   2.027  1.00 20.00     0.115 N 
ENDROOT
BRANCH   1   5
HETATM    5  C1  UNL     1     -32.204   8.198   0.746  1.00 20.00     0.294 C 
HETATM    6  O10 UNL     1     -31.805   7.936  -0.380  1.00 20.00    -0.263 OA
BRANCH   5   7
HETATM    7  O11 UNL     1     -32.632   9.413   1.191  1.00 20.00    -0.325 OA
HETATM    8  C7  UNL     1     -32.600  10.468   0.224  1.00 20.00     0.213 C 
ENDBRANCH   5   7
ENDBRANCH   1   5
BRANCH   4   9
HETATM    9  C8  UNL     1     -34.007   6.561   3.432  1.00 20.00     0.216 C 
HETATM   10  C5  UNL     1     -35.173   5.589   3.542  1.00 20.00     0.042 C 
HETATM   11  C6  UNL     1     -34.352   7.924   4.014  1.00 20.00     0.042 C 
ENDBRANCH   4   9
TORSDOF 3
