REMARK  0 active torsions:
REMARK  status: ('A' for Active; 'I' for Inactive)
ROOT
HETATM    1  C1  UNL     1     -33.376   6.046   2.580  1.00 20.00     0.076 A 
HETATM    2  C2  UNL     1     -33.387   7.326   3.060  1.00 20.00     0.123 A 
HETATM    3  C3  UNL     1     -34.805   5.763   4.155  1.00 20.00     0.073 A 
HETATM    4  C4  UNL     1     -32.017   7.466   1.502  1.00 20.00     0.097 A 
HETATM    5  C5  UNL     1     -32.441   5.976   1.456  1.00 20.00     0.109 A 
HETATM    6  C6  UNL     1     -35.781   5.133   5.071  1.00 20.00     0.079 C 
HETATM    7  N7  UNL     1     -34.173   5.128   3.181  1.00 20.00    -0.248 NA
HETATM    8  N8  UNL     1     -32.574   8.207   2.428  1.00 20.00    -0.255 NA
HETATM    9  S9  UNL     1     -34.449   7.456   4.355  1.00 20.00    -0.053 SA
ENDROOT
TORSDOF 0
