REMARK  1 active torsions:
REMARK  status: ('A' for Active; 'I' for Inactive)
REMARK    1  A    between atoms: C3_3  and  C7_7 
ROOT
HETATM    1  C1  UNL     1     -32.269   8.771   1.422  1.00 20.00     0.255 C 
HETATM    2  C2  UNL     1     -31.798   6.626   1.730  1.00 20.00     0.157 C 
HETATM    3  C3  UNL     1     -32.419   7.195   2.991  1.00 20.00     0.164 C 
HETATM    4  C4  UNL     1     -32.278   5.255   1.295  1.00 20.00     0.043 C 
HETATM    5  O8  UNL     1     -32.121   7.605   0.743  1.00 20.00    -0.314 OA
HETATM    6  O9  UNL     1     -32.308   8.603   2.769  1.00 20.00    -0.313 OA
HETATM    7  S10 UNL     1     -32.395  10.236   0.688  1.00 20.00    -0.025 SA
ENDROOT
BRANCH   3   8
HETATM    8  C7  UNL     1     -33.884   6.858   3.236  1.00 20.00     0.010 C 
HETATM    9  C5  UNL     1     -34.035   5.438   3.789  1.00 20.00     0.012 C 
HETATM   10  C6  UNL     1     -34.527   7.867   4.190  1.00 20.00     0.012 C 
ENDBRANCH   3   8
TORSDOF 1
