REMARK  1 active torsions:
REMARK  status: ('A' for Active; 'I' for Inactive)
REMARK    1  A    between atoms: C6_6  and  C7_7 
ROOT
HETATM    1  C1  UNL     1     -33.429   6.797   2.826  1.00 20.00     0.146 C 
HETATM    2  C2  UNL     1     -32.466   6.724   1.630  1.00 20.00     0.091 C 
HETATM    3  C5  UNL     1     -32.893   8.178   3.254  1.00 20.00     0.160 C 
HETATM    4  C7  UNL     1     -32.229   8.270   1.817  1.00 20.00    -0.010 C 
HETATM    5  C8  UNL     1     -30.732   8.597   1.923  1.00 20.00     0.018 C 
HETATM    6  O9  UNL     1     -34.280   6.049   3.259  1.00 20.00    -0.296 OA
HETATM    7 CL10 UNL     1     -34.154   9.339   3.747  1.00 20.00    -0.116 Cl
ENDROOT
BRANCH   4   8
HETATM    8  C6  UNL     1     -32.912   9.164   0.773  1.00 20.00    -0.004 A 
HETATM    9  C3  UNL     1     -32.929  10.665   0.861  1.00 20.00     0.006 A 
HETATM   10  C4  UNL     1     -32.149   9.985  -0.229  1.00 20.00     0.006 A 
ENDBRANCH   4   8
TORSDOF 1
