REMARK  1 active torsions:
REMARK  status: ('A' for Active; 'I' for Inactive)
REMARK    1  A    between atoms: C4_4  and  C10_10 
ROOT
HETATM    1  C1  UNL     1     -34.648   7.628   4.582  1.00 20.00    -0.003 C 
HETATM    2  C2  UNL     1     -33.721   8.065   3.564  1.00 20.00     0.011 C 
HETATM    3  C3  UNL     1     -35.146   6.409   4.824  1.00 20.00    -0.026 C 
HETATM    4  C4  UNL     1     -33.083   7.388   2.594  1.00 20.00    -0.009 C 
HETATM    5  C5  UNL     1     -33.158   5.905   2.425  1.00 20.00     0.156 C 
HETATM    6  C6  UNL     1     -34.803   5.118   4.150  1.00 20.00     0.035 C 
HETATM    7  C7  UNL     1     -33.375   5.042   3.643  1.00 20.00     0.087 C 
HETATM    8  O11 UNL     1     -32.991   5.398   1.316  1.00 20.00    -0.293 OA
ENDROOT
BRANCH   4   9
HETATM    9  C10 UNL     1     -32.240   8.100   1.572  1.00 20.00     0.014 C 
HETATM   10  C8  UNL     1     -33.099   9.067   0.767  1.00 20.00     0.015 C 
HETATM   11  C9  UNL     1     -31.080   8.825   2.246  1.00 20.00     0.015 C 
ENDBRANCH   4   9
TORSDOF 1
