REMARK  0 active torsions:
REMARK  status: ('A' for Active; 'I' for Inactive)
ROOT
HETATM    1  C1  UNL     1     -34.272   6.572   3.711  1.00 20.00     0.145 C 
HETATM    2  C2  UNL     1     -33.481   7.791   3.288  1.00 20.00     0.089 C 
HETATM    3  C3  UNL     1     -32.208   8.883   0.746  1.00 20.00     0.002 C 
HETATM    4  C4  UNL     1     -31.357   8.089   1.757  1.00 20.00     0.010 C 
HETATM    5  C5  UNL     1     -33.169   7.678   0.700  1.00 20.00     0.010 C 
HETATM    6  C6  UNL     1     -32.487   5.778   2.356  1.00 20.00     0.037 C 
HETATM    7  C7  UNL     1     -33.846   5.355   2.924  1.00 20.00     0.152 C 
HETATM    8  C8  UNL     1     -32.637   7.282   2.113  1.00 20.00    -0.032 C 
HETATM    9  O9  UNL     1     -35.147   6.591   4.565  1.00 20.00    -0.296 OA
HETATM   10 CL10 UNL     1     -33.722   3.950   3.977  1.00 20.00    -0.117 Cl
ENDROOT
TORSDOF 0
