REMARK  1 active torsions:
REMARK  status: ('A' for Active; 'I' for Inactive)
REMARK    1  A    between atoms: C2_2  and  C4_4 
ROOT
HETATM    1  C1  UNL     1     -34.402   6.593   3.859  1.00 20.00     0.171 A 
HETATM    2  C2  UNL     1     -33.453   6.877   2.713  1.00 20.00     0.175 A 
HETATM    3  C3  UNL     1     -35.012   5.261   4.115  1.00 20.00     0.044 C 
HETATM    4  O5  UNL     1     -34.847   7.220   2.650  1.00 20.00    -0.352 OA
HETATM    5 CL6  UNL     1     -32.886   5.555   1.698  1.00 20.00    -0.084 Cl
ENDROOT
BRANCH   2   6
HETATM    6  C4  UNL     1     -32.551   8.066   2.787  1.00 20.00     0.172 C 
HETATM    7 CL7  UNL     1     -31.961   8.526   1.168  1.00 20.00    -0.126 Cl
ENDBRANCH   2   6
TORSDOF 1
