REMARK  1 active torsions:
REMARK  status: ('A' for Active; 'I' for Inactive)
REMARK    1  A    between atoms: C8_8  and  C11_11 
ROOT
HETATM    1  C1  UNL     1     -32.231   5.878   1.393  1.00 20.00    -0.079 C 
HETATM    2  C2  UNL     1     -32.347   9.122   0.424  1.00 20.00     0.132 C 
HETATM    3  C3  UNL     1     -31.729   4.691   1.728  1.00 20.00     0.015 C 
HETATM    4  C4  UNL     1     -33.115   6.399   0.219  1.00 20.00     0.047 C 
HETATM    5  C5  UNL     1     -31.492   9.585   1.607  1.00 20.00     0.080 C 
HETATM    6  C6  UNL     1     -31.042   8.232   2.270  1.00 20.00     0.022 C 
HETATM    7  C7  UNL     1     -32.215   7.608   0.427  1.00 20.00     0.072 C 
HETATM    8  C8  UNL     1     -32.202   7.272   1.993  1.00 20.00    -0.004 C 
HETATM    9  O12 UNL     1     -32.968   9.860  -0.325  1.00 20.00    -0.298 OA
ENDROOT
BRANCH   8  10
HETATM   10  C11 UNL     1     -33.386   7.536   2.934  1.00 20.00    -0.009 C 
HETATM   11  C9  UNL     1     -34.303   6.319   2.984  1.00 20.00     0.011 C 
HETATM   12  C10 UNL     1     -32.885   7.896   4.327  1.00 20.00     0.011 C 
ENDBRANCH   8  10
TORSDOF 1
