REMARK  1 active torsions:
REMARK  status: ('A' for Active; 'I' for Inactive)
REMARK    1  A    between atoms: C2_2  and  C10_10 
ROOT
HETATM    1  C1  UNL     1     -32.773   5.266   1.906  1.00 20.00    -0.017 C 
HETATM    2  C2  UNL     1     -33.594   5.204   2.975  1.00 20.00    -0.068 C 
HETATM    3  C3  UNL     1     -33.582   7.672   3.626  1.00 20.00     0.135 C 
HETATM    4  C4  UNL     1     -32.354   8.240   2.948  1.00 20.00     0.080 C 
HETATM    5  C5  UNL     1     -32.520   7.841   1.473  1.00 20.00     0.017 C 
HETATM    6  C6  UNL     1     -33.366   6.563   1.396  1.00 20.00     0.024 C 
HETATM    7  C7  UNL     1     -34.191   6.575   2.701  1.00 20.00     0.092 C 
HETATM    8  O11 UNL     1     -33.956   8.021   4.740  1.00 20.00    -0.297 OA
ENDROOT
BRANCH   2   9
HETATM    9  C10 UNL     1     -33.789   4.180   4.109  1.00 20.00     0.007 C 
HETATM   10  C8  UNL     1     -35.222   4.246   4.584  1.00 20.00     0.014 C 
HETATM   11  C9  UNL     1     -33.407   2.804   3.611  1.00 20.00     0.014 C 
ENDBRANCH   2   9
TORSDOF 1
