REMARK  1 active torsions:
REMARK  status: ('A' for Active; 'I' for Inactive)
REMARK    1  A    between atoms: C2_2  and  C4_4 
ROOT
HETATM    1  C1  UNL     1     -34.999   6.325   3.256  1.00 20.00     0.171 A 
HETATM    2  C2  UNL     1     -33.617   5.814   2.907  1.00 20.00     0.175 A 
HETATM    3  C3  UNL     1     -35.841   5.755   4.342  1.00 20.00     0.044 C 
HETATM    4  O5  UNL     1     -33.813   6.985   3.717  1.00 20.00    -0.352 OA
HETATM    5 CL6  UNL     1     -32.994   4.367   3.693  1.00 20.00    -0.084 Cl
ENDROOT
BRANCH   2   6
HETATM    6  C4  UNL     1     -33.045   6.113   1.559  1.00 20.00     0.172 C 
HETATM    7 CL7  UNL     1     -32.389   7.770   1.493  1.00 20.00    -0.126 Cl
ENDBRANCH   2   6
TORSDOF 1
