REMARK  1 active torsions:
REMARK  status: ('A' for Active; 'I' for Inactive)
REMARK    1  A    between atoms: C5_5  and  C9_9 
ROOT
HETATM    1  C1  UNL     1     -32.917   5.954   1.486  1.00 20.00     0.049 C 
HETATM    2  C2  UNL     1     -32.388   6.994   0.831  1.00 20.00    -0.018 C 
HETATM    3  C3  UNL     1     -33.556   6.162   2.808  1.00 20.00     0.182 C 
HETATM    4  C4  UNL     1     -33.494   8.618   2.403  1.00 20.00     0.054 C 
HETATM    5  C5  UNL     1     -32.433   8.423   1.312  1.00 20.00     0.014 C 
HETATM    6  C6  UNL     1     -33.419   7.522   3.453  1.00 20.00     0.244 C 
HETATM    7  O10 UNL     1     -34.130   5.230   3.367  1.00 20.00    -0.290 OA
HETATM    8  F11 UNL     1     -34.413   7.727   4.361  1.00 20.00    -0.241 F 
ENDROOT
BRANCH   5   9
HETATM    9  C9  UNL     1     -32.694   9.382   0.150  1.00 20.00    -0.015 C 
HETATM   10  C7  UNL     1     -32.773  10.821   0.652  1.00 20.00     0.010 C 
HETATM   11  C8  UNL     1     -31.609   9.241  -0.914  1.00 20.00     0.010 C 
ENDBRANCH   5   9
TORSDOF 1
