REMARK  1 active torsions:
REMARK  status: ('A' for Active; 'I' for Inactive)
REMARK    1  A    between atoms: C3_3  and  C8_8 
ROOT
HETATM    1  C1  UNL     1     -33.493   6.487   2.684  1.00 20.00     0.145 C 
HETATM    2  C4  UNL     1     -33.704   7.984   2.805  1.00 20.00     0.080 C 
HETATM    3  C5  UNL     1     -32.431   8.720   2.407  1.00 20.00     0.016 C 
HETATM    4  C6  UNL     1     -32.471   7.037   0.476  1.00 20.00     0.036 C 
HETATM    5  C7  UNL     1     -32.512   6.025   1.618  1.00 20.00     0.152 C 
HETATM    6  C8  UNL     1     -32.004   8.426   0.955  1.00 20.00     0.009 C 
HETATM    7  O9  UNL     1     -34.093   5.708   3.424  1.00 20.00    -0.296 OA
HETATM    8 CL10 UNL     1     -33.031   4.438   1.003  1.00 20.00    -0.117 Cl
ENDROOT
BRANCH   6   9
HETATM    9  C3  UNL     1     -32.479   9.488   0.007  1.00 20.00    -0.032 C 
HETATM   10  C2  UNL     1     -32.171  10.785   0.120  1.00 20.00     0.007 C 
ENDBRANCH   6   9
TORSDOF 1
