REMARK  1 active torsions:
REMARK  status: ('A' for Active; 'I' for Inactive)
REMARK    1  A    between atoms: C3_3  and  N9_9 
ROOT
HETATM    1  C1  UNL     1     -33.376   6.022   2.105  1.00 20.00     0.079 C 
HETATM    2  C4  UNL     1     -33.812   5.652   3.525  1.00 20.00     0.070 C 
HETATM    3  C5  UNL     1     -34.937   6.558   4.024  1.00 20.00     0.007 C 
HETATM    4  C6  UNL     1     -34.435   7.848   4.668  1.00 20.00     0.002 C 
HETATM    5  C7  UNL     1     -33.669   8.770   3.725  1.00 20.00     0.020 C 
HETATM    6  C8  UNL     1     -32.430   8.124   3.110  1.00 20.00     0.129 C 
HETATM    7  N9  UNL     1     -32.758   7.275   1.948  1.00 20.00    -0.352 N 
HETATM    8  S10 UNL     1     -33.705   4.902   0.878  1.00 20.00    -0.065 SA
ENDROOT
BRANCH   7   9
HETATM    9  C3  UNL     1     -32.426   7.800   0.712  1.00 20.00     0.081 C 
HETATM   10  C2  UNL     1     -32.399   9.112   0.464  1.00 20.00     0.030 C 
ENDBRANCH   7   9
TORSDOF 1
