REMARK  1 active torsions:
REMARK  status: ('A' for Active; 'I' for Inactive)
REMARK    1  A    between atoms: C4_4  and  C7_7 
ROOT
HETATM    1  C1  UNL     1     -32.436   8.813   1.382  1.00 20.00     0.075 C 
HETATM    2  C2  UNL     1     -32.048   7.831   3.634  1.00 20.00     0.105 C 
HETATM    3  C3  UNL     1     -31.886   7.670   2.128  1.00 20.00     0.164 C 
HETATM    4  C4  UNL     1     -33.951   6.043   2.957  1.00 20.00     0.113 C 
HETATM    5  N8  UNL     1     -32.870   9.714   0.794  1.00 20.00    -0.196 NA
HETATM    6  S9  UNL     1     -33.773   7.475   4.060  1.00 20.00    -0.151 SA
HETATM    7  S10 UNL     1     -32.692   6.111   1.637  1.00 20.00    -0.133 SA
ENDROOT
BRANCH   4   8
HETATM    8  C7  UNL     1     -33.789   4.752   3.749  1.00 20.00     0.001 C 
HETATM    9  C5  UNL     1     -32.408   4.686   4.400  1.00 20.00     0.011 C 
HETATM   10  C6  UNL     1     -34.885   4.626   4.807  1.00 20.00     0.011 C 
ENDBRANCH   4   8
TORSDOF 1
