REMARK  0 active torsions:
REMARK  status: ('A' for Active; 'I' for Inactive)
ROOT
HETATM    1  C1  UNL     1     -34.547   6.961   3.572  1.00 20.00     0.051 C 
HETATM    2  C2  UNL     1     -35.418   5.834   3.965  1.00 20.00     0.058 C 
HETATM    3  C3  UNL     1     -34.301   4.769   4.080  1.00 20.00     0.007 C 
HETATM    4  C4  UNL     1     -31.830   6.611   0.972  1.00 20.00     0.004 C 
HETATM    5  C5  UNL     1     -31.472   7.671   2.052  1.00 20.00     0.036 C 
HETATM    6  C6  UNL     1     -32.958   5.478   3.733  1.00 20.00     0.018 C 
HETATM    7  C7  UNL     1     -33.262   6.099   1.316  1.00 20.00     0.018 C 
HETATM    8  C8  UNL     1     -32.838   7.951   2.617  1.00 20.00     0.169 C 
HETATM    9  C9  UNL     1     -33.399   6.561   2.742  1.00 20.00     0.031 C 
HETATM   10  N10 UNL     1     -34.424   8.092   4.199  1.00 20.00    -0.142 NA
HETATM   11  O11 UNL     1     -33.105   8.570   3.850  1.00 20.00    -0.250 OA
ENDROOT
TORSDOF 0
