REMARK  1 active torsions:
REMARK  status: ('A' for Active; 'I' for Inactive)
REMARK    1  A    between atoms: C4_4  and  C7_7 
ROOT
HETATM    1  C1  UNL     1     -33.799   7.738   3.737  1.00 20.00     0.268 C 
HETATM    2  C2  UNL     1     -34.298   6.422   3.214  1.00 20.00     0.184 C 
HETATM    3  C3  UNL     1     -32.204   6.849   1.447  1.00 20.00     0.107 C 
HETATM    4  C4  UNL     1     -33.057   8.110   1.465  1.00 20.00     0.144 C 
HETATM    5  O8  UNL     1     -33.947   8.073   4.909  1.00 20.00    -0.264 OA
HETATM    6  O9  UNL     1     -33.221   8.563   2.826  1.00 20.00    -0.314 OA
HETATM    7  S10 UNL     1     -32.984   5.501   2.385  1.00 20.00    -0.157 SA
ENDROOT
BRANCH   4   8
HETATM    8  C7  UNL     1     -32.370   9.236   0.700  1.00 20.00     0.008 C 
HETATM    9  C5  UNL     1     -32.108   8.823  -0.747  1.00 20.00     0.012 C 
HETATM   10  C6  UNL     1     -33.210  10.511   0.749  1.00 20.00     0.012 C 
ENDBRANCH   4   8
TORSDOF 1
