REMARK  1 active torsions:
REMARK  status: ('A' for Active; 'I' for Inactive)
REMARK    1  A    between atoms: C7_7  and  N9_9 
ROOT
HETATM    1  C1  UNL     1     -31.450   7.310   1.641  1.00 20.00     0.004 A 
HETATM    2  C2  UNL     1     -32.167   8.018   2.521  1.00 20.00     0.042 A 
HETATM    3  C3  UNL     1     -31.768   5.940   1.360  1.00 20.00     0.018 A 
HETATM    4  C4  UNL     1     -32.796   5.353   1.983  1.00 20.00     0.097 A 
HETATM    5  C5  UNL     1     -33.332   7.388   3.239  1.00 20.00     0.106 A 
HETATM    6  N9  UNL     1     -33.577   6.036   2.906  1.00 20.00    -0.324 N 
HETATM    7  S10 UNL     1     -34.221   8.312   4.346  1.00 20.00    -0.060 SA
ENDROOT
BRANCH   6   8
HETATM    8  C7  UNL     1     -34.588   5.266   3.442  1.00 20.00     0.093 C 
HETATM    9  C6  UNL     1     -34.355   4.140   4.126  1.00 20.00    -0.013 C 
HETATM   10  C8  UNL     1     -32.988   3.596   4.383  1.00 20.00     0.037 C 
ENDBRANCH   6   8
TORSDOF 1
