REMARK  1 active torsions:
REMARK  status: ('A' for Active; 'I' for Inactive)
REMARK    1  A    between atoms: C3_3  and  C8_8 
ROOT
HETATM    1  C1  UNL     1     -34.031   6.549   3.727  1.00 20.00     0.145 C 
HETATM    2  C4  UNL     1     -33.337   5.861   2.570  1.00 20.00     0.080 C 
HETATM    3  C5  UNL     1     -32.880   6.879   1.532  1.00 20.00     0.016 C 
HETATM    4  C6  UNL     1     -32.833   8.699   3.274  1.00 20.00     0.036 C 
HETATM    5  C7  UNL     1     -33.276   7.710   4.349  1.00 20.00     0.152 C 
HETATM    6  C8  UNL     1     -32.038   7.996   2.163  1.00 20.00     0.009 C 
HETATM    7  O9  UNL     1     -35.090   6.108   4.173  1.00 20.00    -0.296 OA
HETATM    8 CL10 UNL     1     -34.305   8.532   5.545  1.00 20.00    -0.117 Cl
ENDROOT
BRANCH   6   9
HETATM    9  C3  UNL     1     -31.599   8.974   1.116  1.00 20.00    -0.032 C 
HETATM   10  C2  UNL     1     -32.439   9.704   0.375  1.00 20.00     0.007 C 
ENDBRANCH   6   9
TORSDOF 1
