REMARK  1 active torsions:
REMARK  status: ('A' for Active; 'I' for Inactive)
REMARK    1  A    between atoms: C7_7  and  C10_10 
ROOT
HETATM    1  C1  UNL     1     -31.584   5.934   0.442  1.00 20.00     0.003 C 
HETATM    2  C2  UNL     1     -31.895   5.158   1.486  1.00 20.00     0.004 C 
HETATM    3  C3  UNL     1     -32.377   8.236   1.123  1.00 20.00     0.036 C 
HETATM    4  C4  UNL     1     -32.112   7.916   2.611  1.00 20.00     0.010 C 
HETATM    5  C5  UNL     1     -32.654   6.969   0.300  1.00 20.00     0.145 C 
HETATM    6  C6  UNL     1     -33.180   5.657   2.069  1.00 20.00     0.149 C 
HETATM    7  C7  UNL     1     -32.961   6.734   3.156  1.00 20.00     0.022 C 
HETATM    8  O11 UNL     1     -33.781   6.321   0.933  1.00 20.00    -0.373 OA
ENDROOT
BRANCH   7   9
HETATM    9  C10 UNL     1     -34.309   7.253   3.670  1.00 20.00    -0.016 C 
HETATM   10  C8  UNL     1     -35.333   6.123   3.709  1.00 20.00     0.010 C 
HETATM   11  C9  UNL     1     -34.145   7.882   5.049  1.00 20.00     0.010 C 
ENDBRANCH   7   9
TORSDOF 1
