REMARK  0 active torsions:
REMARK  status: ('A' for Active; 'I' for Inactive)
ROOT
HETATM    1  C1  UNL     1     -33.890   5.398   3.566  1.00 20.00     0.146 C 
HETATM    2  C2  UNL     1     -34.889   6.399   4.136  1.00 20.00     0.084 C 
HETATM    3  C3  UNL     1     -33.025   7.715   3.081  1.00 20.00     0.034 C 
HETATM    4  C4  UNL     1     -34.473   7.035   1.740  1.00 20.00     0.034 C 
HETATM    5  C5  UNL     1     -34.595   7.609   3.205  1.00 20.00    -0.004 C 
HETATM    6  C6  UNL     1     -33.259   6.302   2.426  1.00 20.00     0.079 C 
HETATM    7  O7  UNL     1     -33.709   4.259   3.948  1.00 20.00    -0.296 OA
HETATM    8 BR8  UNL     1     -31.913   5.514   1.371  1.00 20.00    -0.077 Br
ENDROOT
TORSDOF 0
