REMARK  1 active torsions:
REMARK  status: ('A' for Active; 'I' for Inactive)
REMARK    1  A    between atoms: C4_4  and  C10_10 
ROOT
HETATM    1  C1  UNL     1     -32.787   6.012   1.472  1.00 20.00     0.132 C 
HETATM    2  C2  UNL     1     -31.574   6.910   1.480  1.00 20.00     0.087 C 
HETATM    3  C3  UNL     1     -33.098   7.521   3.253  1.00 20.00     0.021 C 
HETATM    4  C4  UNL     1     -33.862   6.485   2.422  1.00 20.00     0.059 C 
HETATM    5  C5  UNL     1     -32.053   8.124   2.296  1.00 20.00    -0.041 C 
HETATM    6  C6  UNL     1     -30.898   8.761   3.074  1.00 20.00     0.015 C 
HETATM    7  C7  UNL     1     -32.685   9.185   1.378  1.00 20.00     0.015 C 
HETATM    8  O11 UNL     1     -32.877   5.006   0.779  1.00 20.00    -0.298 OA
ENDROOT
BRANCH   4   9
HETATM    9  C10 UNL     1     -34.452   5.395   3.300  1.00 20.00    -0.011 C 
HETATM   10  C8  UNL     1     -33.365   4.726   4.146  1.00 20.00     0.010 C 
HETATM   11  C9  UNL     1     -35.553   5.956   4.203  1.00 20.00     0.010 C 
ENDBRANCH   4   9
TORSDOF 1
