REMARK  4 active torsions:
REMARK  status: ('A' for Active; 'I' for Inactive)
REMARK    1  A    between atoms: C1_1  and  C6_6 
REMARK    2  A    between atoms: C1_1  and  C7_7 
REMARK    3  A    between atoms: C6_6  and  C8_8 
REMARK    4  A    between atoms: C7_7  and  C9_9 
ROOT
HETATM    1  C1  UNL     1     -32.062   7.498   2.047  1.00 20.00     0.161 C 
HETATM    2  O10 UNL     1     -31.507   6.498   1.591  1.00 20.00    -0.295 OA
ENDROOT
BRANCH   1   3
HETATM    3  C6  UNL     1     -31.732   8.903   1.565  1.00 20.00     0.085 C 
BRANCH   3   4
HETATM    4  C8  UNL     1     -32.624   9.379   0.409  1.00 20.00    -0.016 C 
HETATM    5  C2  UNL     1     -32.493   8.463  -0.810  1.00 20.00     0.010 C 
HETATM    6  C3  UNL     1     -32.258  10.812   0.021  1.00 20.00     0.010 C 
ENDBRANCH   3   4
ENDBRANCH   1   3
BRANCH   1   7
HETATM    7  C7  UNL     1     -33.134   7.368   3.116  1.00 20.00     0.242 C 
HETATM    8  F11 UNL     1     -32.586   7.528   4.355  1.00 20.00    -0.241 F 
BRANCH   7   9
HETATM    9  C9  UNL     1     -33.869   6.022   3.072  1.00 20.00     0.019 C 
HETATM   10  C4  UNL     1     -33.055   4.909   3.737  1.00 20.00     0.012 C 
HETATM   11  C5  UNL     1     -35.230   6.144   3.760  1.00 20.00     0.012 C 
ENDBRANCH   7   9
ENDBRANCH   1   7
TORSDOF 4
