REMARK  1 active torsions:
REMARK  status: ('A' for Active; 'I' for Inactive)
REMARK    1  A    between atoms: C5_5  and  C10_10 
ROOT
HETATM    1  C1  UNL     1     -33.339   6.131   2.196  1.00 20.00     0.166 C 
HETATM    2  C2  UNL     1     -32.406   7.059   1.443  1.00 20.00     0.086 C 
HETATM    3  C3  UNL     1     -33.062   9.007   2.921  1.00 20.00     0.009 C 
HETATM    4  C4  UNL     1     -33.341   7.907   3.952  1.00 20.00     0.052 C 
HETATM    5  C5  UNL     1     -32.949   8.487   1.479  1.00 20.00    -0.004 C 
HETATM    6  C6  UNL     1     -34.119   6.729   3.363  1.00 20.00     0.159 C 
HETATM    7  C7  UNL     1     -34.395   5.677   4.431  1.00 20.00     0.060 C 
HETATM    8  O11 UNL     1     -33.456   4.952   1.863  1.00 20.00    -0.294 OA
HETATM    9  F12 UNL     1     -35.325   7.191   2.922  1.00 20.00    -0.235 F 
ENDROOT
BRANCH   5  10
HETATM   10  C10 UNL     1     -32.098   9.424   0.626  1.00 20.00    -0.018 C 
HETATM   11  C8  UNL     1     -32.055   8.942  -0.822  1.00 20.00     0.010 C 
HETATM   12  C9  UNL     1     -32.633  10.852   0.701  1.00 20.00     0.010 C 
ENDBRANCH   5  10
TORSDOF 1
