REMARK  0 active torsions:
REMARK  status: ('A' for Active; 'I' for Inactive)
ROOT
HETATM    1  C1  UNL     1     -34.969   6.499   3.583  1.00 20.00    -0.025 A 
HETATM    2  C2  UNL     1     -34.373   7.699   3.706  1.00 20.00    -0.020 A 
HETATM    3  C3  UNL     1     -33.493   5.352   1.770  1.00 20.00     0.014 C 
HETATM    4  C4  UNL     1     -32.230   6.092   1.346  1.00 20.00     0.070 C 
HETATM    5  C5  UNL     1     -32.421   9.338   0.709  1.00 20.00     0.197 C 
HETATM    6  C6  UNL     1     -31.349   9.457   1.756  1.00 20.00     0.197 C 
HETATM    7  C7  UNL     1     -33.685   5.782   3.224  1.00 20.00     0.021 A 
HETATM    8  C8  UNL     1     -32.994   7.166   3.365  1.00 20.00     0.078 A 
HETATM    9  C9  UNL     1     -32.387   7.468   1.988  1.00 20.00     0.171 C 
HETATM   10  O10 UNL     1     -33.260   8.294   1.203  1.00 20.00    -0.352 OA
HETATM   11  O11 UNL     1     -31.112   8.103   2.135  1.00 20.00    -0.352 OA
ENDROOT
TORSDOF 0
