REMARK  0 active torsions:
REMARK  status: ('A' for Active; 'I' for Inactive)
ROOT
HETATM    1  C1  UNL     1     -32.627  10.892   1.048  1.00 20.00     0.001 C 
HETATM    2  C2  UNL     1     -32.961  10.181  -0.262  1.00 20.00     0.001 C 
HETATM    3  C3  UNL     1     -31.909   6.001   1.444  1.00 20.00     0.004 C 
HETATM    4  C4  UNL     1     -33.097   5.664   2.341  1.00 20.00     0.034 C 
HETATM    5  C5  UNL     1     -31.875   9.873   1.899  1.00 20.00     0.012 C 
HETATM    6  C6  UNL     1     -32.499   8.733  -0.099  1.00 20.00     0.012 C 
HETATM    7  C7  UNL     1     -31.357   7.394   1.749  1.00 20.00     0.012 C 
HETATM    8  C8  UNL     1     -34.092   6.776   2.414  1.00 20.00     0.152 A 
HETATM    9  C9  UNL     1     -33.742   8.185   2.006  1.00 20.00     0.159 A 
HETATM   10  C10 UNL     1     -32.380   8.503   1.421  1.00 20.00    -0.012 C 
HETATM   11  O11 UNL     1     -33.746   7.787   3.380  1.00 20.00    -0.375 OA
ENDROOT
TORSDOF 0
