REMARK  1 active torsions:
REMARK  status: ('A' for Active; 'I' for Inactive)
REMARK    1  A    between atoms: C6_6  and  C10_10 
ROOT
HETATM    1  C1  UNL     1     -32.988   7.989   4.071  1.00 20.00     0.014 C 
HETATM    2  C2  UNL     1     -32.179   8.722   2.990  1.00 20.00     0.039 C 
HETATM    3  C3  UNL     1     -34.210   7.883   2.029  1.00 20.00     0.049 C 
HETATM    4  C4  UNL     1     -32.956   5.991   2.583  1.00 20.00     0.177 C 
HETATM    5  C5  UNL     1     -33.869   7.029   3.244  1.00 20.00    -0.020 C 
HETATM    6  C6  UNL     1     -32.740   8.106   1.699  1.00 20.00     0.064 C 
HETATM    7  C7  UNL     1     -35.037   6.447   4.004  1.00 20.00     0.017 C 
HETATM    8  O11 UNL     1     -32.207   6.761   1.613  1.00 20.00    -0.379 OA
ENDROOT
BRANCH   6   9
HETATM    9  C10 UNL     1     -32.447   8.885   0.440  1.00 20.00     0.012 C 
HETATM   10  C8  UNL     1     -33.067  10.287   0.499  1.00 20.00     0.012 C 
HETATM   11  C9  UNL     1     -30.938   8.992   0.192  1.00 20.00     0.012 C 
ENDBRANCH   6   9
TORSDOF 1
