REMARK  0 active torsions:
REMARK  status: ('A' for Active; 'I' for Inactive)
ROOT
HETATM    1  C1  UNL     1     -32.873   7.002   2.085  1.00 20.00     0.082 C 
HETATM    2  C2  UNL     1     -32.317   8.102   1.588  1.00 20.00    -0.050 C 
HETATM    3  C3  UNL     1     -33.649   7.452   3.255  1.00 20.00     0.171 C 
HETATM    4  C4  UNL     1     -31.710   8.403   0.261  1.00 20.00     0.036 C 
HETATM    5  C5  UNL     1     -33.644   8.959   3.369  1.00 20.00     0.094 C 
HETATM    6  C6  UNL     1     -31.913   9.922   0.147  1.00 20.00     0.005 C 
HETATM    7  C7  UNL     1     -32.924  10.300   1.241  1.00 20.00     0.010 C 
HETATM    8  C8  UNL     1     -32.567   9.351   2.371  1.00 20.00     0.023 C 
HETATM    9  O9  UNL     1     -34.257   6.701   4.003  1.00 20.00    -0.291 OA
HETATM   10 CL10 UNL     1     -32.942   5.446   1.450  1.00 20.00    -0.080 Cl
ENDROOT
TORSDOF 0
