REMARK  0 active torsions:
REMARK  status: ('A' for Active; 'I' for Inactive)
ROOT
HETATM    1  C1  UNL     1     -34.809   5.692   3.582  1.00 20.00     0.147 A 
HETATM    2  C2  UNL     1     -31.829   7.068   1.648  1.00 20.00     0.168 A 
HETATM    3  C3  UNL     1     -33.692   6.101   2.800  1.00 20.00     0.061 A 
HETATM    4  C4  UNL     1     -33.345   7.371   3.168  1.00 20.00     0.134 A 
HETATM    5  N5  UNL     1     -35.322   6.529   4.488  1.00 20.00    -0.220 NA
HETATM    6  N6  UNL     1     -32.289   7.938   2.524  1.00 20.00    -0.244 NA
HETATM    7  S7  UNL     1     -32.632   5.538   1.550  1.00 20.00    -0.078 SA
HETATM    8  S8  UNL     1     -34.410   7.943   4.425  1.00 20.00     0.032 SA
ENDROOT
TORSDOF 0
