REMARK  1 active torsions:
REMARK  status: ('A' for Active; 'I' for Inactive)
REMARK    1  A    between atoms: C5_5  and  C10_10 
ROOT
HETATM    1  C1  UNL     1     -34.152   7.577   3.961  1.00 20.00     0.046 C 
HETATM    2  C2  UNL     1     -33.105   8.094   3.309  1.00 20.00    -0.018 C 
HETATM    3  C3  UNL     1     -34.550   6.171   3.722  1.00 20.00     0.149 C 
HETATM    4  C4  UNL     1     -33.673   5.321   2.832  1.00 20.00     0.088 C 
HETATM    5  C5  UNL     1     -32.298   7.370   2.258  1.00 20.00     0.015 C 
HETATM    6  C6  UNL     1     -33.067   6.150   1.694  1.00 20.00    -0.003 C 
HETATM    7  C7  UNL     1     -32.182   5.256   0.822  1.00 20.00     0.011 C 
HETATM    8  O11 UNL     1     -35.533   5.708   4.297  1.00 20.00    -0.293 OA
ENDROOT
BRANCH   5   9
HETATM    9  C10 UNL     1     -31.910   8.351   1.145  1.00 20.00    -0.015 C 
HETATM   10  C8  UNL     1     -33.083   9.268   0.811  1.00 20.00     0.010 C 
HETATM   11  C9  UNL     1     -30.688   9.166   1.557  1.00 20.00     0.010 C 
ENDBRANCH   5   9
TORSDOF 1
