REMARK  2 active torsions:
REMARK  status: ('A' for Active; 'I' for Inactive)
REMARK    1  A    between atoms: C7_7  and  C10_10 
REMARK    2  A    between atoms: C9_9  and  C10_10 
ROOT
HETATM    1  C1  UNL     1     -33.367  10.618   0.428  1.00 20.00     0.012 C 
HETATM    2  C2  UNL     1     -32.556   9.798   0.761  1.00 20.00    -0.117 C 
HETATM    3  C9  UNL     1     -31.560   8.796   1.164  1.00 20.00     0.093 C 
ENDROOT
BRANCH   3   4
HETATM    4  C10 UNL     1     -32.032   8.056   2.402  1.00 20.00     0.020 C 
BRANCH   4   5
HETATM    5  C7  UNL     1     -33.350   7.335   2.133  1.00 20.00     0.023 C 
HETATM    6  C4  UNL     1     -33.125   5.985   1.429  1.00 20.00     0.008 C 
HETATM    7  C3  UNL     1     -32.912   4.995   2.573  1.00 20.00     0.004 C 
HETATM    8  C5  UNL     1     -33.907   5.448   3.643  1.00 20.00     0.041 C 
HETATM    9  C8  UNL     1     -34.034   6.927   3.413  1.00 20.00     0.086 A 
HETATM   10  C6  UNL     1     -34.444   7.893   4.501  1.00 20.00     0.207 A 
HETATM   11  O11 UNL     1     -35.382   7.413   3.534  1.00 20.00    -0.375 OA
ENDBRANCH   4   5
ENDBRANCH   3   4
TORSDOF 2
