REMARK  1 active torsions:
REMARK  status: ('A' for Active; 'I' for Inactive)
REMARK    1  A    between atoms: C4_4  and  C7_7 
ROOT
HETATM    1  C1  UNL     1     -32.166   8.738   0.536  1.00 20.00     0.075 C 
HETATM    2  C2  UNL     1     -31.724   6.370   1.058  1.00 20.00     0.105 C 
HETATM    3  C3  UNL     1     -31.806   7.791   1.597  1.00 20.00     0.164 C 
HETATM    4  C4  UNL     1     -32.823   6.089   3.500  1.00 20.00     0.113 C 
HETATM    5  N8  UNL     1     -32.451   9.487  -0.304  1.00 20.00    -0.196 NA
HETATM    6  S9  UNL     1     -31.557   5.271   2.485  1.00 20.00    -0.151 SA
HETATM    7  S10 UNL     1     -33.040   7.811   2.940  1.00 20.00    -0.133 SA
ENDROOT
BRANCH   4   8
HETATM    8  C7  UNL     1     -34.146   5.343   3.387  1.00 20.00     0.001 C 
HETATM    9  C5  UNL     1     -33.998   3.901   3.872  1.00 20.00     0.011 C 
HETATM   10  C6  UNL     1     -35.241   6.061   4.176  1.00 20.00     0.011 C 
ENDBRANCH   4   8
TORSDOF 1
