REMARK  1 active torsions:
REMARK  status: ('A' for Active; 'I' for Inactive)
REMARK    1  A    between atoms: C7_7  and  C10_10 
ROOT
HETATM    1  C1  UNL     1     -31.832   7.948   0.147  1.00 20.00    -0.018 C 
HETATM    2  C2  UNL     1     -32.343   8.952   0.881  1.00 20.00    -0.024 C 
HETATM    3  C3  UNL     1     -32.968   6.331   1.486  1.00 20.00     0.139 C 
HETATM    4  C4  UNL     1     -31.210   7.568   2.345  1.00 20.00     0.025 C 
HETATM    5  C5  UNL     1     -31.575   6.793   1.077  1.00 20.00     0.078 C 
HETATM    6  C6  UNL     1     -32.465   8.455   2.311  1.00 20.00     0.020 C 
HETATM    7  C7  UNL     1     -33.624   7.418   2.351  1.00 20.00     0.067 C 
HETATM    8  O11 UNL     1     -33.494   5.282   1.146  1.00 20.00    -0.297 OA
ENDROOT
BRANCH   7   9
HETATM    9  C10 UNL     1     -33.959   6.911   3.741  1.00 20.00    -0.011 C 
HETATM   10  C8  UNL     1     -34.104   8.073   4.726  1.00 20.00     0.010 C 
HETATM   11  C9  UNL     1     -35.239   6.071   3.723  1.00 20.00     0.010 C 
ENDBRANCH   7   9
TORSDOF 1
