REMARK  1 active torsions:
REMARK  status: ('A' for Active; 'I' for Inactive)
REMARK    1  A    between atoms: C7_7  and  C10_10 
ROOT
HETATM    1  C1  UNL     1     -34.612   6.823   5.051  1.00 20.00    -0.018 C 
HETATM    2  C2  UNL     1     -34.420   7.753   4.101  1.00 20.00    -0.024 C 
HETATM    3  C3  UNL     1     -34.184   5.077   3.489  1.00 20.00     0.139 C 
HETATM    4  C4  UNL     1     -36.107   6.366   3.341  1.00 20.00     0.025 C 
HETATM    5  C5  UNL     1     -35.270   5.639   4.399  1.00 20.00     0.078 C 
HETATM    6  C6  UNL     1     -34.923   7.178   2.790  1.00 20.00     0.020 C 
HETATM    7  C7  UNL     1     -33.985   6.034   2.305  1.00 20.00     0.067 C 
HETATM    8  O11 UNL     1     -33.542   4.059   3.698  1.00 20.00    -0.297 OA
ENDROOT
BRANCH   7   9
HETATM    9  C10 UNL     1     -32.538   6.432   2.090  1.00 20.00    -0.011 C 
HETATM   10  C8  UNL     1     -31.764   5.321   1.377  1.00 20.00     0.010 C 
HETATM   11  C9  UNL     1     -32.440   7.737   1.296  1.00 20.00     0.010 C 
ENDBRANCH   7   9
TORSDOF 1
