REMARK  1 active torsions:
REMARK  status: ('A' for Active; 'I' for Inactive)
REMARK    1  A    between atoms: C4_4  and  C8_8 
ROOT
HETATM    1  C1  UNL     1     -34.545   5.569   4.725  1.00 20.00     0.302 C 
HETATM    2  C2  UNL     1     -34.851   6.962   4.165  1.00 20.00     0.302 C 
HETATM    3  C3  UNL     1     -32.787   5.307   3.084  1.00 20.00     0.307 C 
HETATM    4  C4  UNL     1     -33.099   6.711   2.525  1.00 20.00     0.250 C 
HETATM    5  C6  UNL     1     -33.681   3.375   4.220  1.00 20.00     0.310 C 
HETATM    6  C7  UNL     1     -32.746   8.101   4.539  1.00 20.00     0.310 C 
HETATM    7  N9  UNL     1     -33.982   4.701   3.685  1.00 20.00     0.088 N 
HETATM    8  N10 UNL     1     -33.691   7.612   3.535  1.00 20.00     0.092 N 
ENDROOT
BRANCH   4   9
HETATM    9  C8  UNL     1     -31.866   7.301   1.832  1.00 20.00     0.033 C 
HETATM   10  C5  UNL     1     -32.180   8.605   1.181  1.00 20.00     0.007 C 
ENDBRANCH   4   9
TORSDOF 1
