REMARK  1 active torsions:
REMARK  status: ('A' for Active; 'I' for Inactive)
REMARK    1  A    between atoms: C8_8  and  C11_11 
ROOT
HETATM    1  C1  UNL     1     -32.814   7.567   1.979  1.00 20.00    -0.081 C 
HETATM    2  C2  UNL     1     -32.986   8.794   2.492  1.00 20.00     0.015 C 
HETATM    3  C3  UNL     1     -31.455   6.903   1.923  1.00 20.00     0.061 C 
HETATM    4  C4  UNL     1     -33.707   6.280   0.004  1.00 20.00     0.039 C 
HETATM    5  C5  UNL     1     -31.501   5.394   2.203  1.00 20.00     0.239 C 
HETATM    6  C6  UNL     1     -32.883   4.991   0.134  1.00 20.00     0.236 C 
HETATM    7  C7  UNL     1     -33.976   6.743   1.450  1.00 20.00     0.046 C 
HETATM    8  C8  UNL     1     -34.037   5.404   2.179  1.00 20.00     0.199 C 
HETATM    9  N12 UNL     1     -32.766   4.770   1.640  1.00 20.00    -0.066 N 
HETATM   10  H32 UNL     1     -32.758   3.761   1.845  1.00 20.00     0.280 HD
ENDROOT
BRANCH   8  11
HETATM   11  C11 UNL     1     -34.114   5.413   3.696  1.00 20.00     0.009 C 
HETATM   12  C9  UNL     1     -35.347   6.182   4.174  1.00 20.00     0.011 C 
HETATM   13  C10 UNL     1     -34.133   3.986   4.248  1.00 20.00     0.011 C 
ENDBRANCH   8  11
TORSDOF 1
