REMARK  0 active torsions:
REMARK  status: ('A' for Active; 'I' for Inactive)
ROOT
HETATM    1  C1  UNL     1     -36.262   6.190   3.235  1.00 20.00    -0.029 C 
HETATM    2  C2  UNL     1     -35.282   6.534   2.394  1.00 20.00    -0.013 C 
HETATM    3  C3  UNL     1     -33.336   7.614   3.401  1.00 20.00     0.139 C 
HETATM    4  C4  UNL     1     -35.724   5.640   4.515  1.00 20.00     0.032 C 
HETATM    5  C5  UNL     1     -32.205   8.039   2.497  1.00 20.00     0.079 C 
HETATM    6  C6  UNL     1     -32.325   7.053   1.343  1.00 20.00     0.009 C 
HETATM    7  C7  UNL     1     -32.871   5.781   1.988  1.00 20.00     0.022 C 
HETATM    8  C8  UNL     1     -34.246   5.341   4.179  1.00 20.00     0.004 C 
HETATM    9  C9  UNL     1     -33.928   6.270   2.984  1.00 20.00     0.041 C 
HETATM   10  C10 UNL     1     -34.071   3.848   3.874  1.00 20.00     0.011 C 
HETATM   11  O11 UNL     1     -33.720   8.284   4.353  1.00 20.00    -0.297 OA
ENDROOT
TORSDOF 0
