REMARK  2 active torsions:
REMARK  status: ('A' for Active; 'I' for Inactive)
REMARK    1  A    between atoms: C1_1  and  C5_5 
REMARK    2  A    between atoms: C2_2  and  C3_3 
ROOT
HETATM    1  C1  UNL     1     -33.641   5.842   2.836  1.00 20.00     0.134 C 
HETATM    2  C2  UNL     1     -32.622   6.210   2.053  1.00 20.00     0.166 C 
HETATM    3  F7  UNL     1     -31.835   5.288   1.460  1.00 20.00    -0.202 F 
ENDROOT
BRANCH   1   4
HETATM    4  C5  UNL     1     -34.562   6.785   3.531  1.00 20.00     0.410 C 
HETATM    5  F8  UNL     1     -35.519   6.168   4.269  1.00 20.00    -0.167 F 
HETATM    6  F9  UNL     1     -35.208   7.585   2.645  1.00 20.00    -0.167 F 
HETATM    7  F10 UNL     1     -33.884   7.603   4.375  1.00 20.00    -0.167 F 
ENDBRANCH   1   4
BRANCH   2   8
HETATM    8  C3  UNL     1     -32.238   7.611   1.744  1.00 20.00     0.183 C 
HETATM    9  C4  UNL     1     -32.244   8.083   0.313  1.00 20.00     0.099 C 
HETATM   10  O6  UNL     1     -31.921   8.367   2.662  1.00 20.00    -0.290 OA
ENDBRANCH   2   8
TORSDOF 2
