REMARK  1 active torsions:
REMARK  status: ('A' for Active; 'I' for Inactive)
REMARK    1  A    between atoms: C7_7  and  C10_10 
ROOT
HETATM    1  C1  UNL     1     -32.830   5.912   1.665  1.00 20.00    -0.017 C 
HETATM    2  C2  UNL     1     -31.636   6.474   1.933  1.00 20.00    -0.019 C 
HETATM    3  C3  UNL     1     -34.282   7.243   3.277  1.00 20.00     0.135 C 
HETATM    4  C4  UNL     1     -33.294   7.804   4.277  1.00 20.00     0.080 C 
HETATM    5  C5  UNL     1     -32.261   8.544   3.413  1.00 20.00     0.022 C 
HETATM    6  C6  UNL     1     -33.596   7.204   1.876  1.00 20.00     0.090 C 
HETATM    7  C7  UNL     1     -32.208   7.884   2.020  1.00 20.00    -0.006 C 
HETATM    8  O11 UNL     1     -35.402   6.853   3.586  1.00 20.00    -0.297 OA
ENDROOT
BRANCH   7   9
HETATM    9  C10 UNL     1     -31.763   8.830   0.916  1.00 20.00    -0.009 C 
HETATM   10  C8  UNL     1     -31.445   8.059  -0.366  1.00 20.00     0.011 C 
HETATM   11  C9  UNL     1     -32.831   9.892   0.646  1.00 20.00     0.011 C 
ENDBRANCH   7   9
TORSDOF 1
