REMARK  4 active torsions:
REMARK  status: ('A' for Active; 'I' for Inactive)
REMARK    1  A    between atoms: C1_1  and  C3_3 
REMARK    2  A    between atoms: C2_2  and  C7_7 
REMARK    3  A    between atoms: C2_2  and  C8_8 
REMARK    4  A    between atoms: C3_3  and  C9_9 
ROOT
HETATM    1  C1  UNL     1     -33.063   6.059   2.212  1.00 20.00     0.164 C 
HETATM    2  C2  UNL     1     -33.839   5.603   3.213  1.00 20.00    -0.038 C 
HETATM    3  F11 UNL     1     -32.524   5.180   1.336  1.00 20.00    -0.202 F 
ENDROOT
BRANCH   1   4
HETATM    4  C3  UNL     1     -32.711   7.477   1.909  1.00 20.00     0.187 C 
HETATM    5  O10 UNL     1     -32.605   8.324   2.790  1.00 20.00    -0.290 OA
BRANCH   4   6
HETATM    6  C9  UNL     1     -32.459   7.795   0.445  1.00 20.00     0.082 C 
HETATM    7  C6  UNL     1     -32.133   9.262   0.217  1.00 20.00     0.013 C 
ENDBRANCH   4   6
ENDBRANCH   1   4
BRANCH   2   8
HETATM    8  C7  UNL     1     -34.162   4.148   3.471  1.00 20.00     0.033 C 
HETATM    9  C4  UNL     1     -33.152   3.489   4.400  1.00 20.00     0.010 C 
ENDBRANCH   2   8
BRANCH   2  10
HETATM   10  C8  UNL     1     -34.454   6.586   4.192  1.00 20.00     0.033 C 
HETATM   11  C5  UNL     1     -35.823   7.076   3.740  1.00 20.00     0.010 C 
ENDBRANCH   2  10
TORSDOF 4
