REMARK  0 active torsions:
REMARK  status: ('A' for Active; 'I' for Inactive)
ROOT
HETATM    1  C1  UNL     1     -34.742   6.469   4.017  1.00 20.00     0.100 C 
HETATM    2  C2  UNL     1     -33.297   5.749   2.198  1.00 20.00     0.067 A 
HETATM    3  C3  UNL     1     -33.611   6.695   3.168  1.00 20.00     0.056 A 
HETATM    4  C4  UNL     1     -32.828   7.836   3.299  1.00 20.00    -0.001 A 
HETATM    5  C5  UNL     1     -32.197   5.991   1.390  1.00 20.00     0.129 A 
HETATM    6  C6  UNL     1     -31.750   7.984   2.441  1.00 20.00     0.135 A 
HETATM    7  C7  UNL     1     -33.143   8.870   4.331  1.00 20.00     0.053 C 
HETATM    8  N8  UNL     1     -35.658   6.285   4.705  1.00 20.00    -0.191 NA
HETATM    9  N9  UNL     1     -31.413   7.088   1.487  1.00 20.00    -0.224 NA
HETATM   10 CL10 UNL     1     -31.733   4.880   0.168  1.00 20.00    -0.062 Cl
HETATM   11 CL11 UNL     1     -30.704   9.349   2.500  1.00 20.00    -0.062 Cl
ENDROOT
TORSDOF 0
