REMARK  1 active torsions:
REMARK  status: ('A' for Active; 'I' for Inactive)
REMARK    1  A    between atoms: C3_3  and  C6_6 
ROOT
HETATM    1  C1  UNL     1     -32.345   8.967   0.588  1.00 20.00     0.134 C 
HETATM    2  C2  UNL     1     -31.354   7.032   1.606  1.00 20.00     0.137 C 
HETATM    3  C3  UNL     1     -32.299   7.462   2.720  1.00 20.00     0.075 C 
HETATM    4  N7  UNL     1     -31.689   7.772   0.412  1.00 20.00    -0.374 N 
HETATM    5  S8  UNL     1     -32.725  10.025  -0.633  1.00 20.00    -0.053 SA
HETATM    6  S9  UNL     1     -32.714   9.188   2.288  1.00 20.00    -0.094 SA
HETATM    7  H20 UNL     1     -31.537   7.382  -0.514  1.00 20.00     0.161 HD
ENDROOT
BRANCH   3   8
HETATM    8  C6  UNL     1     -33.568   6.620   2.770  1.00 20.00    -0.007 C 
HETATM    9  C4  UNL     1     -33.234   5.140   2.971  1.00 20.00     0.011 C 
HETATM   10  C5  UNL     1     -34.503   7.107   3.880  1.00 20.00     0.011 C 
ENDBRANCH   3   8
TORSDOF 1
