REMARK  2 active torsions:
REMARK  status: ('A' for Active; 'I' for Inactive)
REMARK    1  A    between atoms: C2_2  and  C3_3 
REMARK    2  A    between atoms: C3_3  and  O11_11 
ROOT
HETATM    1  C1  UNL     1     -32.403   7.009   1.204  1.00 20.00    -0.069 C 
HETATM    2  C2  UNL     1     -32.089   7.736   0.134  1.00 20.00     0.084 C 
HETATM    3  C4  UNL     1     -32.348   5.502   1.544  1.00 20.00     0.040 C 
HETATM    4  C5  UNL     1     -34.776   7.076   4.061  1.00 20.00     0.001 C 
HETATM    5  C6  UNL     1     -34.169   8.050   3.020  1.00 20.00     0.009 C 
HETATM    6  C7  UNL     1     -34.140   5.697   3.763  1.00 20.00     0.005 C 
HETATM    7  C8  UNL     1     -32.935   7.301   2.580  1.00 20.00     0.019 C 
HETATM    8  C9  UNL     1     -33.608   5.907   2.362  1.00 20.00    -0.002 C 
ENDROOT
BRANCH   2   9
HETATM    9  C3  UNL     1     -32.238   9.205   0.055  1.00 20.00     0.165 C 
HETATM   10  O10 UNL     1     -32.668   9.882   0.977  1.00 20.00    -0.647 OA
BRANCH   9  11
HETATM   11  O11 UNL     1     -31.848   9.704  -1.139  1.00 20.00    -0.773 OA
HETATM   12  H23 UNL     1     -31.951  10.679  -1.181  1.00 20.00     0.167 HD
ENDBRANCH   9  11
ENDBRANCH   2   9
TORSDOF 2
