REMARK  1 active torsions:
REMARK  status: ('A' for Active; 'I' for Inactive)
REMARK    1  A    between atoms: C8_8  and  C11_11 
ROOT
HETATM    1  C1  UNL     1     -34.005   4.826   3.990  1.00 20.00     0.131 C 
HETATM    2  C2  UNL     1     -35.201   5.736   4.064  1.00 20.00     0.079 C 
HETATM    3  C3  UNL     1     -34.588   7.083   3.713  1.00 20.00     0.018 C 
HETATM    4  C4  UNL     1     -33.686   5.062   0.988  1.00 20.00     0.002 C 
HETATM    5  C5  UNL     1     -32.563   4.661   1.933  1.00 20.00     0.013 C 
HETATM    6  C6  UNL     1     -33.924   6.541   1.279  1.00 20.00     0.011 C 
HETATM    7  C7  UNL     1     -32.861   5.439   3.204  1.00 20.00     0.064 C 
HETATM    8  C8  UNL     1     -33.444   6.787   2.730  1.00 20.00    -0.027 C 
HETATM    9  O12 UNL     1     -33.980   3.700   4.470  1.00 20.00    -0.298 OA
ENDROOT
BRANCH   8  10
HETATM   10  C11 UNL     1     -32.404   7.910   2.764  1.00 20.00    -0.013 C 
HETATM   11  C9  UNL     1     -31.252   7.597   1.814  1.00 20.00     0.010 C 
HETATM   12  C10 UNL     1     -33.051   9.245   2.408  1.00 20.00     0.010 C 
ENDBRANCH   8  10
TORSDOF 1
