REMARK  0 active torsions:
REMARK  status: ('A' for Active; 'I' for Inactive)
ROOT
HETATM    1  C1  UNL     1     -32.905   7.836   2.609  1.00 20.00    -0.021 C 
HETATM    2  C2  UNL     1     -32.428   7.015   1.656  1.00 20.00    -0.087 C 
HETATM    3  C3  UNL     1     -33.969   7.425   3.589  1.00 20.00     0.068 C 
HETATM    4  C4  UNL     1     -32.958   5.609   1.470  1.00 20.00     0.036 C 
HETATM    5  C5  UNL     1     -34.316   5.377   2.143  1.00 20.00     0.045 C 
HETATM    6  C6  UNL     1     -34.168   5.102   4.774  1.00 20.00     0.153 A 
HETATM    7  C7  UNL     1     -34.306   5.959   3.526  1.00 20.00     0.090 A 
HETATM    8  C8  UNL     1     -31.331   7.435   0.723  1.00 20.00     0.043 C 
HETATM    9  C9  UNL     1     -34.024   3.623   4.740  1.00 20.00     0.042 C 
HETATM   10  O10 UNL     1     -35.439   5.589   4.329  1.00 20.00    -0.369 OA
ENDROOT
TORSDOF 0
