REMARK  2 active torsions:
REMARK  status: ('A' for Active; 'I' for Inactive)
REMARK    1  A    between atoms: C5_5  and  O12_12 
REMARK    2  A    between atoms: C6_6  and  C11_11 
ROOT
HETATM    1  C1  UNL     1     -32.908   8.344   3.501  1.00 20.00    -0.021 C 
HETATM    2  C2  UNL     1     -33.362   7.201   2.954  1.00 20.00    -0.059 C 
HETATM    3  C3  UNL     1     -31.794   9.168   2.923  1.00 20.00     0.032 C 
HETATM    4  C4  UNL     1     -31.426   7.292   1.300  1.00 20.00     0.042 C 
HETATM    5  C5  UNL     1     -32.754   6.629   1.692  1.00 20.00     0.149 C 
HETATM    6  C6  UNL     1     -31.447   8.814   1.468  1.00 20.00    -0.005 C 
HETATM    7  C7  UNL     1     -34.527   6.465   3.554  1.00 20.00     0.046 C 
ENDROOT
BRANCH   6   8
HETATM    8  C11 UNL     1     -32.406   9.483   0.479  1.00 20.00    -0.018 C 
HETATM    9  C8  UNL     1     -32.370  11.001   0.640  1.00 20.00     0.010 C 
HETATM   10  C9  UNL     1     -32.060   9.087  -0.955  1.00 20.00     0.010 C 
ENDBRANCH   6   8
BRANCH   5  11
HETATM   11  O12 UNL     1     -32.494   5.234   1.845  1.00 20.00    -0.386 OA
HETATM   12  C10 UNL     1     -32.366   4.591   0.586  1.00 20.00     0.202 C 
ENDBRANCH   5  11
TORSDOF 2
