REMARK  1 active torsions:
REMARK  status: ('A' for Active; 'I' for Inactive)
REMARK    1  A    between atoms: C2_2  and  C3_3 
ROOT
HETATM    1  C1  UNL     1     -32.662   8.109   2.437  1.00 20.00    -0.016 C 
HETATM    2  C2  UNL     1     -33.459   7.158   2.934  1.00 20.00    -0.020 C 
HETATM    3  C4  UNL     1     -31.793   7.569   1.350  1.00 20.00     0.032 C 
HETATM    4  C5  UNL     1     -33.261   5.829   2.273  1.00 20.00     0.021 C 
HETATM    5  C6  UNL     1     -31.908   6.050   1.555  1.00 20.00    -0.007 C 
HETATM    6  C7  UNL     1     -33.201   4.646   3.233  1.00 20.00     0.015 C 
HETATM    7  C8  UNL     1     -31.787   5.273   0.251  1.00 20.00     0.011 C 
ENDROOT
BRANCH   2   8
HETATM    8  C3  UNL     1     -34.443   7.444   3.965  1.00 20.00     0.265 C 
HETATM    9  O9  UNL     1     -35.189   6.586   4.437  1.00 20.00    -0.302 OA
ENDBRANCH   2   8
TORSDOF 1
