REMARK  0 active torsions:
REMARK  status: ('A' for Active; 'I' for Inactive)
ROOT
HETATM    1  C1  UNL     1     -31.612   9.409   0.189  1.00 20.00    -0.004 C 
HETATM    2  C2  UNL     1     -33.017   9.195   0.417  1.00 20.00    -0.003 C 
HETATM    3  C3  UNL     1     -30.695   8.981   1.065  1.00 20.00    -0.025 C 
HETATM    4  C4  UNL     1     -33.455   8.387   1.393  1.00 20.00    -0.009 C 
HETATM    5  C5  UNL     1     -32.463   6.218   1.749  1.00 20.00     0.140 C 
HETATM    6  C6  UNL     1     -31.070   8.248   2.325  1.00 20.00     0.048 C 
HETATM    7  C7  UNL     1     -33.619   5.282   2.033  1.00 20.00     0.079 C 
HETATM    8  C8  UNL     1     -33.959   5.268   3.509  1.00 20.00     0.008 C 
HETATM    9  C9  UNL     1     -34.253   6.674   4.011  1.00 20.00     0.006 C 
HETATM   10  C10 UNL     1     -33.041   7.602   3.814  1.00 20.00     0.001 C 
HETATM   11  C11 UNL     1     -32.521   7.648   2.338  1.00 20.00     0.044 C 
HETATM   12  C12 UNL     1     -33.395   8.986   4.384  1.00 20.00     0.011 C 
HETATM   13  O13 UNL     1     -31.576   5.865   0.967  1.00 20.00    -0.297 OA
ENDROOT
TORSDOF 0
