REMARK  1 active torsions:
REMARK  status: ('A' for Active; 'I' for Inactive)
REMARK    1  A    between atoms: C8_8  and  C11_11 
ROOT
HETATM    1  C1  UNL     1     -33.915   4.933   3.254  1.00 20.00    -0.079 C 
HETATM    2  C2  UNL     1     -32.416   7.628   1.851  1.00 20.00     0.132 C 
HETATM    3  C3  UNL     1     -34.086   3.853   4.014  1.00 20.00     0.015 C 
HETATM    4  C4  UNL     1     -34.552   6.355   3.217  1.00 20.00     0.047 C 
HETATM    5  C5  UNL     1     -31.271   6.788   1.279  1.00 20.00     0.080 C 
HETATM    6  C6  UNL     1     -31.522   5.370   1.909  1.00 20.00     0.022 C 
HETATM    7  C7  UNL     1     -33.123   6.698   2.824  1.00 20.00     0.072 C 
HETATM    8  C8  UNL     1     -33.043   5.290   2.064  1.00 20.00    -0.004 C 
HETATM    9  O12 UNL     1     -32.651   8.789   1.555  1.00 20.00    -0.298 OA
ENDROOT
BRANCH   8  10
HETATM   10  C11 UNL     1     -33.730   5.003   0.721  1.00 20.00    -0.009 C 
HETATM   11  C9  UNL     1     -33.892   6.292  -0.076  1.00 20.00     0.011 C 
HETATM   12  C10 UNL     1     -32.935   3.971  -0.070  1.00 20.00     0.011 C 
ENDBRANCH   8  10
TORSDOF 1
