REMARK  0 active torsions:
REMARK  status: ('A' for Active; 'I' for Inactive)
ROOT
HETATM    1  C1  UNL     1     -33.094   7.303   2.520  1.00 20.00     0.154 C 
HETATM    2  C2  UNL     1     -34.172   8.078   3.250  1.00 20.00     0.081 C 
HETATM    3  C3  UNL     1     -34.605   7.349   4.515  1.00 20.00     0.018 C 
HETATM    4  C4  UNL     1     -35.145   5.950   4.240  1.00 20.00     0.076 C 
HETATM    5  C5  UNL     1     -33.476   5.915   2.047  1.00 20.00     0.212 C 
HETATM    6  O6  UNL     1     -32.001   7.821   2.294  1.00 20.00    -0.295 OA
HETATM    7  S7  UNL     1     -33.881   4.886   3.480  1.00 20.00    -0.141 SA
HETATM    8 CL8  UNL     1     -32.139   5.193   1.127  1.00 20.00    -0.105 Cl
ENDROOT
TORSDOF 0
