REMARK  0 active torsions:
REMARK  status: ('A' for Active; 'I' for Inactive)
ROOT
HETATM    1  C1  UNL     1     -32.855   7.687   2.833  1.00 20.00     0.136 C 
HETATM    2  C2  UNL     1     -32.913   7.877   4.324  1.00 20.00     0.080 C 
HETATM    3  C3  UNL     1     -33.175   6.461   4.812  1.00 20.00     0.017 C 
HETATM    4  C4  UNL     1     -35.770   7.069   2.533  1.00 20.00     0.002 C 
HETATM    5  C5  UNL     1     -34.720   6.609   1.533  1.00 20.00     0.018 C 
HETATM    6  C6  UNL     1     -35.516   6.217   3.773  1.00 20.00     0.010 C 
HETATM    7  C7  UNL     1     -33.477   6.363   2.388  1.00 20.00     0.024 C 
HETATM    8  C8  UNL     1     -34.026   5.783   3.723  1.00 20.00    -0.029 C 
HETATM    9  C9  UNL     1     -32.416   5.542   1.665  1.00 20.00     0.024 C 
HETATM   10  C10 UNL     1     -33.934   4.259   3.865  1.00 20.00     0.016 C 
HETATM   11  O11 UNL     1     -32.395   8.525   2.067  1.00 20.00    -0.297 OA
ENDROOT
TORSDOF 0
