REMARK  2 active torsions:
REMARK  status: ('A' for Active; 'I' for Inactive)
REMARK    1  A    between atoms: C1_1  and  C2_2 
REMARK    2  A    between atoms: C1_1  and  C3_3 
ROOT
HETATM    1  C1  UNL     1     -32.958   6.788   2.098  1.00 20.00     0.280 C 
HETATM    2  O4  UNL     1     -32.305   7.666   1.534  1.00 20.00    -0.284 OA
ENDROOT
BRANCH   1   3
HETATM    3  C2  UNL     1     -32.856   5.346   1.675  1.00 20.00     0.344 C 
HETATM    4  F5  UNL     1     -31.630   5.076   1.152  1.00 20.00    -0.224 F 
HETATM    5 CL9  UNL     1     -34.086   5.034   0.444  1.00 20.00    -0.081 Cl
ENDBRANCH   1   3
BRANCH   1   6
HETATM    6  C3  UNL     1     -33.862   7.116   3.254  1.00 20.00     0.455 C 
HETATM    7  F6  UNL     1     -34.468   6.010   3.754  1.00 20.00    -0.163 F 
HETATM    8  F7  UNL     1     -34.844   7.984   2.905  1.00 20.00    -0.163 F 
HETATM    9  F8  UNL     1     -33.182   7.687   4.281  1.00 20.00    -0.163 F 
ENDBRANCH   1   6
TORSDOF 2
