REMARK  1 active torsions:
REMARK  status: ('A' for Active; 'I' for Inactive)
REMARK    1  A    between atoms: C7_7  and  C10_10 
ROOT
HETATM    1  C1  UNL     1     -31.487   7.477   1.577  1.00 20.00    -0.023 C 
HETATM    2  C2  UNL     1     -32.679   7.098   1.001  1.00 20.00    -0.012 C 
HETATM    3  C3  UNL     1     -34.448   7.128   3.146  1.00 20.00     0.140 C 
HETATM    4  C4  UNL     1     -33.933   7.769   4.451  1.00 20.00     0.080 C 
HETATM    5  C5  UNL     1     -32.373   7.808   4.249  1.00 20.00     0.017 C 
HETATM    6  C6  UNL     1     -32.270   7.984   2.753  1.00 20.00     0.028 C 
HETATM    7  C7  UNL     1     -33.164   6.695   2.389  1.00 20.00     0.048 C 
HETATM    8  O11 UNL     1     -35.626   7.002   2.851  1.00 20.00    -0.297 OA
ENDROOT
BRANCH   7   9
HETATM    9  C10 UNL     1     -32.828   5.226   2.712  1.00 20.00    -0.002 C 
HETATM   10  C8  UNL     1     -33.854   4.657   3.682  1.00 20.00     0.011 C 
HETATM   11  C9  UNL     1     -32.772   4.408   1.430  1.00 20.00     0.011 C 
ENDBRANCH   7   9
TORSDOF 1
