REMARK  1 active torsions:
REMARK  status: ('A' for Active; 'I' for Inactive)
REMARK    1  A    between atoms: C3_3  and  C9_9 
ROOT
HETATM    1  C1  UNL     1     -34.101   7.775   3.569  1.00 20.00     0.178 C 
HETATM    2  C2  UNL     1     -33.735   5.614   2.226  1.00 20.00     0.087 C 
HETATM    3  C3  UNL     1     -32.520   8.051   1.811  1.00 20.00     0.185 C 
HETATM    4  C4  UNL     1     -33.926   6.234   3.627  1.00 20.00    -0.018 C 
HETATM    5  C5  UNL     1     -32.738   5.882   4.549  1.00 20.00     0.018 C 
HETATM    6  C6  UNL     1     -35.188   5.611   4.261  1.00 20.00     0.018 C 
HETATM    7  O10 UNL     1     -33.834   8.339   2.284  1.00 20.00    -0.374 OA
HETATM    8  S11 UNL     1     -32.342   6.317   1.288  1.00 20.00    -0.136 SA
ENDROOT
BRANCH   3   9
HETATM    9  C9  UNL     1     -32.252   8.954   0.615  1.00 20.00     0.017 C 
HETATM   10  C7  UNL     1     -32.831  10.350   0.849  1.00 20.00     0.013 C 
HETATM   11  C8  UNL     1     -30.753   9.040   0.326  1.00 20.00     0.013 C 
ENDBRANCH   3   9
TORSDOF 1
