REMARK  0 active torsions:
REMARK  status: ('A' for Active; 'I' for Inactive)
ROOT
HETATM    1  C1  UNL     1     -32.093   7.384   1.546  1.00 20.00     0.024 A 
HETATM    2  C2  UNL     1     -32.999   6.749   2.448  1.00 20.00    -0.016 A 
HETATM    3  C3  UNL     1     -33.725   7.681   3.163  1.00 20.00    -0.007 A 
HETATM    4  C4  UNL     1     -32.165   8.759   1.620  1.00 20.00    -0.020 A 
HETATM    5  C5  UNL     1     -33.211   5.276   2.624  1.00 20.00     0.311 C 
HETATM    6  C6  UNL     1     -34.734   7.323   4.203  1.00 20.00     0.077 C 
HETATM    7  C7  UNL     1     -35.078   5.823   4.107  1.00 20.00     0.277 C 
HETATM    8  C8  UNL     1     -31.395   9.763   0.854  1.00 20.00     0.056 C 
HETATM    9  C9  UNL     1     -34.174   3.583   4.046  1.00 20.00     0.310 C 
HETATM   10  N10 UNL     1     -33.860   5.007   3.927  1.00 20.00     0.088 N 
HETATM   11  S11 UNL     1     -33.323   9.283   2.770  1.00 20.00    -0.099 SA
ENDROOT
TORSDOF 0
