REMARK  0 active torsions:
REMARK  status: ('A' for Active; 'I' for Inactive)
ROOT
HETATM    1  C1  UNL     1     -32.766   6.354   1.433  1.00 20.00    -0.028 C 
HETATM    2  C2  UNL     1     -33.227   5.297   2.123  1.00 20.00     0.003 C 
HETATM    3  C3  UNL     1     -34.559   6.241   3.880  1.00 20.00     0.154 C 
HETATM    4  C4  UNL     1     -32.371   7.638   2.125  1.00 20.00     0.032 C 
HETATM    5  C5  UNL     1     -34.155   7.701   3.975  1.00 20.00     0.085 C 
HETATM    6  C6  UNL     1     -32.252   6.266   4.226  1.00 20.00     0.043 C 
HETATM    7  C7  UNL     1     -32.646   7.633   3.650  1.00 20.00    -0.002 C 
HETATM    8  C8  UNL     1     -33.344   5.374   3.619  1.00 20.00     0.115 C 
HETATM    9  O9  UNL     1     -35.714   5.848   3.966  1.00 20.00    -0.295 OA
HETATM   10 CL10 UNL     1     -33.466   3.815   4.404  1.00 20.00    -0.106 Cl
ENDROOT
TORSDOF 0
