REMARK  3 active torsions:
REMARK  status: ('A' for Active; 'I' for Inactive)
REMARK    1  A    between atoms: C1_1  and  C5_5 
REMARK    2  A    between atoms: C1_1  and  C6_6 
REMARK    3  A    between atoms: C4_4  and  C5_5 
ROOT
HETATM    1  C1  UNL     1     -32.338   7.507   2.152  1.00 20.00     0.137 C 
HETATM    2  O7  UNL     1     -32.583   6.510   1.474  1.00 20.00    -0.297 OA
ENDROOT
BRANCH   1   3
HETATM    3  C5  UNL     1     -31.645   8.731   1.582  1.00 20.00     0.083 C 
BRANCH   3   4
HETATM    4  C4  UNL     1     -32.582   9.717   0.960  1.00 20.00    -0.008 A 
HETATM    5  C2  UNL     1     -32.068  10.736  -0.019  1.00 20.00     0.005 A 
HETATM    6  C3  UNL     1     -32.938   9.607  -0.497  1.00 20.00     0.005 A 
ENDBRANCH   3   4
ENDBRANCH   1   3
BRANCH   1   7
HETATM    7  C6  UNL     1     -32.744   7.575   3.600  1.00 20.00     0.163 C 
HETATM    8 BR8  UNL     1     -34.281   6.419   3.802  1.00 20.00    -0.089 Br
ENDBRANCH   1   7
TORSDOF 3
