REMARK  2 active torsions:
REMARK  status: ('A' for Active; 'I' for Inactive)
REMARK    1  A    between atoms: C2_2  and  C4_4 
REMARK    2  A    between atoms: C4_4  and  C5_5 
ROOT
HETATM    1  C1  UNL     1     -35.011   6.861   3.785  1.00 20.00     0.147 A 
HETATM    2  C2  UNL     1     -34.070   7.482   2.781  1.00 20.00     0.151 A 
HETATM    3  C3  UNL     1     -34.992   5.417   4.134  1.00 20.00     0.042 C 
HETATM    4  O6  UNL     1     -33.848   7.594   4.193  1.00 20.00    -0.376 OA
ENDROOT
BRANCH   2   5
HETATM    5  C4  UNL     1     -33.036   6.707   2.047  1.00 20.00     0.049 C 
BRANCH   5   6
HETATM    6  C5  UNL     1     -31.666   7.400   1.944  1.00 20.00     0.117 C 
HETATM    7 CL7  UNL     1     -31.786   8.960   1.098  1.00 20.00    -0.130 Cl
ENDBRANCH   5   6
ENDBRANCH   2   5
TORSDOF 2
