REMARK  0 active torsions:
REMARK  status: ('A' for Active; 'I' for Inactive)
ROOT
HETATM    1  C1  UNL     1     -32.212   9.340   0.294  1.00 20.00    -0.004 C 
HETATM    2  C2  UNL     1     -33.506   8.710   0.260  1.00 20.00    -0.003 C 
HETATM    3  C3  UNL     1     -31.186   8.780   0.947  1.00 20.00    -0.025 C 
HETATM    4  C4  UNL     1     -33.797   7.661   1.043  1.00 20.00    -0.009 C 
HETATM    5  C5  UNL     1     -33.193   7.646   3.378  1.00 20.00     0.140 C 
HETATM    6  C6  UNL     1     -31.322   7.476   1.687  1.00 20.00     0.048 C 
HETATM    7  C7  UNL     1     -34.380   7.048   4.102  1.00 20.00     0.079 C 
HETATM    8  C8  UNL     1     -34.279   5.538   4.160  1.00 20.00     0.008 C 
HETATM    9  C9  UNL     1     -34.134   4.950   2.766  1.00 20.00     0.006 C 
HETATM   10  C10 UNL     1     -32.871   5.482   2.064  1.00 20.00     0.001 C 
HETATM   11  C11 UNL     1     -32.797   7.044   2.008  1.00 20.00     0.044 C 
HETATM   12  C12 UNL     1     -32.767   4.812   0.683  1.00 20.00     0.011 C 
HETATM   13  O13 UNL     1     -32.655   8.660   3.831  1.00 20.00    -0.297 OA
ENDROOT
TORSDOF 0
