REMARK  1 active torsions:
REMARK  status: ('A' for Active; 'I' for Inactive)
REMARK    1  A    between atoms: C7_7  and  C11_11 
ROOT
HETATM    1  C1  UNL     1     -33.519   5.424   2.861  1.00 20.00    -0.021 C 
HETATM    2  C2  UNL     1     -32.646   6.143   2.128  1.00 20.00    -0.053 C 
HETATM    3  C3  UNL     1     -34.513   6.083   3.782  1.00 20.00     0.034 C 
HETATM    4  C4  UNL     1     -34.131   8.151   2.450  1.00 20.00     0.050 C 
HETATM    5  C5  UNL     1     -33.029   8.031   4.505  1.00 20.00     0.174 C 
HETATM    6  C6  UNL     1     -34.351   7.617   3.852  1.00 20.00     0.016 C 
HETATM    7  C7  UNL     1     -32.693   7.667   2.226  1.00 20.00     0.087 C 
HETATM    8  C8  UNL     1     -31.600   5.480   1.283  1.00 20.00     0.046 C 
HETATM    9  O12 UNL     1     -32.025   8.010   3.464  1.00 20.00    -0.375 OA
ENDROOT
BRANCH   7  10
HETATM   10  C11 UNL     1     -32.032   8.416   1.074  1.00 20.00     0.016 C 
HETATM   11  C9  UNL     1     -32.738   9.747   0.821  1.00 20.00     0.013 C 
HETATM   12  C10 UNL     1     -30.548   8.642   1.358  1.00 20.00     0.013 C 
ENDBRANCH   7  10
TORSDOF 1
