REMARK  0 active torsions:
REMARK  status: ('A' for Active; 'I' for Inactive)
ROOT
HETATM    1  C1  UNL     1     -32.368   7.925   2.738  1.00 20.00     0.098 A 
HETATM    2  C2  UNL     1     -33.427   7.104   3.062  1.00 20.00     0.136 A 
HETATM    3  C3  UNL     1     -32.560   5.900   1.447  1.00 20.00     0.253 A 
HETATM    4  N4  UNL     1     -33.539   5.943   2.322  1.00 20.00    -0.201 NA
HETATM    5  F5  UNL     1     -32.421   4.878   0.591  1.00 20.00    -0.176 F 
HETATM    6  S6  UNL     1     -31.467   7.224   1.458  1.00 20.00    -0.048 SA
HETATM    7 CL7  UNL     1     -34.565   7.453   4.296  1.00 20.00    -0.062 Cl
ENDROOT
TORSDOF 0
