REMARK  1 active torsions:
REMARK  status: ('A' for Active; 'I' for Inactive)
REMARK    1  A    between atoms: C8_8  and  C11_11 
ROOT
HETATM    1  C1  UNL     1     -33.096   5.535   1.027  1.00 20.00     0.071 C 
HETATM    2  C2  UNL     1     -35.037   5.190   3.840  1.00 20.00    -0.004 A 
HETATM    3  C3  UNL     1     -33.891   4.361   4.155  1.00 20.00    -0.004 A 
HETATM    4  C4  UNL     1     -34.868   6.415   3.311  1.00 20.00    -0.020 A 
HETATM    5  C5  UNL     1     -32.643   4.805   3.924  1.00 20.00    -0.020 A 
HETATM    6  C6  UNL     1     -33.542   7.023   3.059  1.00 20.00     0.041 A 
HETATM    7  C7  UNL     1     -32.338   6.151   3.391  1.00 20.00     0.041 A 
HETATM    8  C8  UNL     1     -32.624   6.539   1.950  1.00 20.00     0.067 A 
HETATM    9  N12 UNL     1     -33.476   4.728   0.285  1.00 20.00    -0.196 NA
ENDROOT
BRANCH   8  10
HETATM   10  C11 UNL     1     -31.711   7.560   1.319  1.00 20.00     0.001 C 
HETATM   11  C9  UNL     1     -32.408   8.290   0.164  1.00 20.00     0.011 C 
HETATM   12  C10 UNL     1     -31.215   8.578   2.355  1.00 20.00     0.011 C 
ENDBRANCH   8  10
TORSDOF 1
