REMARK  0 active torsions:
REMARK  status: ('A' for Active; 'I' for Inactive)
ROOT
HETATM    1  C1  UNL     1     -33.229   8.009   2.622  1.00 20.00     0.086 C 
HETATM    2  C2  UNL     1     -33.908   6.948   3.070  1.00 20.00    -0.064 C 
HETATM    3  C3  UNL     1     -32.159   7.819   1.624  1.00 20.00     0.283 C 
HETATM    4  C4  UNL     1     -34.948   6.959   4.151  1.00 20.00     0.035 C 
HETATM    5  C5  UNL     1     -35.222   5.477   4.407  1.00 20.00     0.005 C 
HETATM    6  C6  UNL     1     -33.980   4.747   3.894  1.00 20.00     0.016 C 
HETATM    7  C7  UNL     1     -32.069   5.503   2.377  1.00 20.00     0.192 C 
HETATM    8  C8  UNL     1     -33.566   5.547   2.654  1.00 20.00     0.002 C 
HETATM    9  C9  UNL     1     -34.372   5.129   1.413  1.00 20.00     0.022 C 
HETATM   10  O10 UNL     1     -31.717   8.771   0.989  1.00 20.00    -0.260 OA
HETATM   11  O11 UNL     1     -31.698   6.548   1.445  1.00 20.00    -0.317 OA
ENDROOT
TORSDOF 0
