REMARK  1 active torsions:
REMARK  status: ('A' for Active; 'I' for Inactive)
REMARK    1  A    between atoms: C4_4  and  C7_7 
ROOT
HETATM    1  C1  UNL     1     -34.687   5.887   3.453  1.00 20.00     0.075 C 
HETATM    2  C2  UNL     1     -32.799   5.318   1.973  1.00 20.00     0.105 C 
HETATM    3  C3  UNL     1     -33.829   6.367   2.365  1.00 20.00     0.164 C 
HETATM    4  C4  UNL     1     -31.687   7.772   1.496  1.00 20.00     0.113 C 
HETATM    5  N8  UNL     1     -35.366   5.507   4.314  1.00 20.00    -0.196 NA
HETATM    6  S9  UNL     1     -31.598   6.074   0.839  1.00 20.00    -0.151 SA
HETATM    7  S10 UNL     1     -32.886   7.837   2.862  1.00 20.00    -0.133 SA
ENDROOT
BRANCH   4   8
HETATM    8  C7  UNL     1     -32.105   8.730   0.388  1.00 20.00     0.001 C 
HETATM    9  C5  UNL     1     -32.167  10.166   0.909  1.00 20.00     0.011 C 
HETATM   10  C6  UNL     1     -31.148   8.634  -0.799  1.00 20.00     0.011 C 
ENDBRANCH   4   8
TORSDOF 1
