REMARK  1 active torsions:
REMARK  status: ('A' for Active; 'I' for Inactive)
REMARK    1  A    between atoms: C5_5  and  C7_7 
ROOT
HETATM    1  C1  UNL     1     -34.181   6.560   3.577  1.00 20.00     0.003 C 
HETATM    2  C2  UNL     1     -33.799   7.765   4.431  1.00 20.00     0.003 C 
HETATM    3  C3  UNL     1     -33.167   6.589   2.431  1.00 20.00     0.041 C 
HETATM    4  C4  UNL     1     -33.445   8.840   3.401  1.00 20.00     0.041 C 
HETATM    5  C5  UNL     1     -32.486   8.648   0.925  1.00 20.00     0.167 A 
HETATM    6  C6  UNL     1     -32.882   8.052   2.257  1.00 20.00     0.088 A 
HETATM    7  O8  UNL     1     -31.514   8.354   1.934  1.00 20.00    -0.368 OA
ENDROOT
BRANCH   5   8
HETATM    8  C7  UNL     1     -32.645  10.094   0.621  1.00 20.00     0.120 C 
HETATM    9 BR9  UNL     1     -31.457  10.623  -0.836  1.00 20.00    -0.094 Br
ENDBRANCH   5   8
TORSDOF 1
