REMARK  1 active torsions:
REMARK  status: ('A' for Active; 'I' for Inactive)
REMARK    1  A    between atoms: C3_3  and  C9_9 
ROOT
HETATM    1  C1  UNL     1     -33.713   7.496   1.226  1.00 20.00     0.069 C 
HETATM    2  C2  UNL     1     -32.488   8.382   1.409  1.00 20.00     0.069 C 
HETATM    3  C3  UNL     1     -33.249   6.166   1.806  1.00 20.00     0.076 C 
HETATM    4  C4  UNL     1     -32.192   9.198   0.150  1.00 20.00     0.042 C 
HETATM    5  C5  UNL     1     -32.591   9.311   2.618  1.00 20.00     0.042 C 
HETATM    6  C6  UNL     1     -33.636   4.994   0.903  1.00 20.00     0.043 C 
HETATM    7  N10 UNL     1     -31.376   7.437   1.625  1.00 20.00    -0.187 NA
HETATM    8  N11 UNL     1     -31.778   6.267   1.835  1.00 20.00    -0.186 NA
ENDROOT
BRANCH   3   9
HETATM    9  C9  UNL     1     -33.758   5.917   3.226  1.00 20.00     0.009 C 
HETATM   10  C7  UNL     1     -35.284   5.943   3.260  1.00 20.00     0.012 C 
HETATM   11  C8  UNL     1     -33.229   4.588   3.758  1.00 20.00     0.012 C 
ENDBRANCH   3   9
TORSDOF 1
