REMARK  2 active torsions:
REMARK  status: ('A' for Active; 'I' for Inactive)
REMARK    1  A    between atoms: C3_3  and  C4_4 
REMARK    2  A    between atoms: C4_4  and  C5_5 
ROOT
HETATM    1  C1  UNL     1     -34.336   6.706   3.746  1.00 20.00    -0.151 C 
HETATM    2  C2  UNL     1     -34.757   7.332   4.804  1.00 20.00     0.096 C 
HETATM    3  C3  UNL     1     -33.918   6.077   2.689  1.00 20.00     0.103 C 
ENDROOT
BRANCH   3   4
HETATM    4  C4  UNL     1     -32.727   6.551   1.952  1.00 20.00     0.188 C 
HETATM    5  O9  UNL     1     -31.973   5.813   1.331  1.00 20.00    -0.290 OA
BRANCH   4   6
HETATM    6  C5  UNL     1     -32.486   7.993   2.004  1.00 20.00     0.230 A 
HETATM    7  C6  UNL     1     -32.337   8.824   0.745  1.00 20.00     0.088 A 
HETATM    8  C7  UNL     1     -32.571  10.300   0.824  1.00 20.00     0.049 C 
HETATM    9  C8  UNL     1     -32.448   8.201  -0.611  1.00 20.00     0.049 C 
HETATM   10  O10 UNL     1     -31.199   8.379   1.493  1.00 20.00    -0.362 OA
ENDBRANCH   4   6
ENDBRANCH   3   4
TORSDOF 2
