REMARK  0 active torsions:
REMARK  status: ('A' for Active; 'I' for Inactive)
ROOT
HETATM    1  C1  UNL     1     -32.728   8.847   0.647  1.00 20.00     0.001 C 
HETATM    2  C2  UNL     1     -31.306   8.350   0.893  1.00 20.00     0.001 C 
HETATM    3  C3  UNL     1     -33.658   7.811   1.278  1.00 20.00     0.011 C 
HETATM    4  C4  UNL     1     -31.451   6.995   1.576  1.00 20.00     0.011 C 
HETATM    5  C5  UNL     1     -32.652   7.852   3.642  1.00 20.00     0.096 C 
HETATM    6  C6  UNL     1     -33.315   5.662   2.650  1.00 20.00     0.096 C 
HETATM    7  C7  UNL     1     -32.795   7.069   2.319  1.00 20.00    -0.022 C 
HETATM    8  S8  UNL     1     -34.152   7.594   4.631  1.00 20.00    -0.097 SA
HETATM    9  S9  UNL     1     -34.733   5.833   3.763  1.00 20.00    -0.097 SA
ENDROOT
TORSDOF 0
