REMARK  4 active torsions:
REMARK  status: ('A' for Active; 'I' for Inactive)
REMARK    1  A    between atoms: C3_3  and  C4_4 
REMARK    2  A    between atoms: C4_4  and  C5_5 
REMARK    3  A    between atoms: C5_5  and  C6_6 
REMARK    4  A    between atoms: C6_6  and  C7_7 
ROOT
HETATM    1  C1  UNL     1     -32.331   9.161   0.744  1.00 20.00     0.087 C 
HETATM    2  C2  UNL     1     -32.242   7.964   1.503  1.00 20.00     0.089 C 
HETATM    3  C3  UNL     1     -32.839   7.842   2.697  1.00 20.00    -0.016 C 
HETATM    4  N8  UNL     1     -32.401  10.138   0.122  1.00 20.00    -0.192 NA
ENDROOT
BRANCH   3   5
HETATM    5  C4  UNL     1     -32.768   6.600   3.538  1.00 20.00     0.028 C 
BRANCH   5   6
HETATM    6  C5  UNL     1     -34.166   6.055   3.841  1.00 20.00     0.005 C 
BRANCH   6   7
HETATM    7  C6  UNL     1     -34.089   4.763   4.661  1.00 20.00     0.015 C 
BRANCH   7   8
HETATM    8  C7  UNL     1     -33.261   3.671   3.992  1.00 20.00     0.114 C 
HETATM    9 CL9  UNL     1     -33.171   2.197   4.983  1.00 20.00    -0.130 Cl
ENDBRANCH   7   8
ENDBRANCH   6   7
ENDBRANCH   5   6
ENDBRANCH   3   5
TORSDOF 4
