REMARK  0 active torsions:
REMARK  status: ('A' for Active; 'I' for Inactive)
ROOT
HETATM    1  C1  UNL     1     -32.839   5.564   2.012  1.00 20.00     0.050 C 
HETATM    2  C2  UNL     1     -32.032   6.403   1.353  1.00 20.00    -0.014 C 
HETATM    3  C3  UNL     1     -33.648   6.040   3.159  1.00 20.00     0.188 C 
HETATM    4  C4  UNL     1     -32.419   8.214   3.073  1.00 20.00     0.064 C 
HETATM    5  C5  UNL     1     -31.798   7.857   1.701  1.00 20.00    -0.026 C 
HETATM    6  C6  UNL     1     -33.751   7.534   3.399  1.00 20.00     0.164 C 
HETATM    7  C7  UNL     1     -32.354   8.748   0.577  1.00 20.00     0.019 C 
HETATM    8  C8  UNL     1     -30.277   8.106   1.784  1.00 20.00     0.019 C 
HETATM    9  C9  UNL     1     -34.951   8.089   2.643  1.00 20.00     0.060 C 
HETATM   10  O10 UNL     1     -34.253   5.228   3.856  1.00 20.00    -0.290 OA
HETATM   11  F11 UNL     1     -33.993   7.769   4.727  1.00 20.00    -0.235 F 
ENDROOT
TORSDOF 0
