REMARK  1 active torsions:
REMARK  status: ('A' for Active; 'I' for Inactive)
REMARK    1  A    between atoms: C5_5  and  N7_7 
ROOT
HETATM    1  C1  UNL     1     -32.452   6.757   1.601  1.00 20.00     0.332 C 
HETATM    2  N7  UNL     1     -33.300   6.038   1.973  1.00 20.00    -0.241 NA
HETATM    3  O8  UNL     1     -31.604   7.477   1.219  1.00 20.00    -0.260 OA
ENDROOT
BRANCH   2   4
HETATM    4  C5  UNL     1     -33.319   5.835   3.429  1.00 20.00     0.126 C 
HETATM    5  C3  UNL     1     -34.243   6.873   4.069  1.00 20.00     0.029 C 
HETATM    6  C2  UNL     1     -35.592   6.175   4.154  1.00 20.00     0.003 C 
HETATM    7  C4  UNL     1     -35.216   4.754   4.542  1.00 20.00     0.018 C 
HETATM    8  C6  UNL     1     -33.950   4.473   3.738  1.00 20.00     0.083 C 
HETATM    9 BR9  UNL     1     -32.731   3.358   4.767  1.00 20.00    -0.089 Br
ENDBRANCH   2   4
TORSDOF 1
