REMARK  1 active torsions:
REMARK  status: ('A' for Active; 'I' for Inactive)
REMARK    1  A    between atoms: C3_3  and  C7_7 
ROOT
HETATM    1  C1  UNL     1     -34.153   7.523   4.079  1.00 20.00     0.089 C 
HETATM    2  C2  UNL     1     -33.814   6.347   3.174  1.00 20.00     0.053 C 
HETATM    3  C3  UNL     1     -32.311   8.401   2.256  1.00 20.00     0.112 C 
HETATM    4  C4  UNL     1     -33.914   5.018   3.909  1.00 20.00     0.022 C 
HETATM    5  S8  UNL     1     -33.707   9.061   3.225  1.00 20.00    -0.152 SA
HETATM    6  S9  UNL     1     -32.113   6.626   2.599  1.00 20.00    -0.148 SA
ENDROOT
BRANCH   3   7
HETATM    7  C7  UNL     1     -32.568   8.620   0.771  1.00 20.00     0.001 C 
HETATM    8  C5  UNL     1     -32.741  10.108   0.467  1.00 20.00     0.011 C 
HETATM    9  C6  UNL     1     -31.434   8.032  -0.067  1.00 20.00     0.011 C 
ENDBRANCH   3   7
TORSDOF 1
