REMARK  0 active torsions:
REMARK  status: ('A' for Active; 'I' for Inactive)
ROOT
HETATM    1  C1  UNL     1     -33.010   6.648   2.220  1.00 20.00     0.161 C 
HETATM    2  C2  UNL     1     -33.956   6.128   3.276  1.00 20.00     0.091 C 
HETATM    3  C3  UNL     1     -34.881   7.273   3.637  1.00 20.00     0.084 C 
HETATM    4  C4  UNL     1     -32.771   8.146   2.266  1.00 20.00     0.141 C 
HETATM    5  C5  UNL     1     -33.151   8.803   0.948  1.00 20.00     0.053 C 
HETATM    6  O6  UNL     1     -32.447   5.900   1.426  1.00 20.00    -0.295 OA
HETATM    7  S7  UNL     1     -33.830   8.740   3.620  1.00 20.00    -0.135 SA
HETATM    8 CL8  UNL     1     -31.058   8.415   2.645  1.00 20.00    -0.099 Cl
ENDROOT
TORSDOF 0
