REMARK  1 active torsions:
REMARK  status: ('A' for Active; 'I' for Inactive)
REMARK    1  A    between atoms: C6_6  and  C11_11 
ROOT
HETATM    1  C1  UNL     1     -33.406   5.116   3.059  1.00 20.00     0.136 C 
HETATM    2  C2  UNL     1     -33.028   5.367   1.590  1.00 20.00     0.085 C 
HETATM    3  C3  UNL     1     -32.524   8.540   3.343  1.00 20.00     0.006 C 
HETATM    4  C4  UNL     1     -33.078   7.425   4.222  1.00 20.00     0.018 C 
HETATM    5  C5  UNL     1     -33.338   6.869   1.826  1.00 20.00     0.012 C 
HETATM    6  C6  UNL     1     -32.150   7.812   2.054  1.00 20.00    -0.006 C 
HETATM    7  C7  UNL     1     -33.903   6.569   3.254  1.00 20.00     0.021 C 
HETATM    8  C8  UNL     1     -35.405   6.715   3.426  1.00 20.00     0.024 C 
HETATM    9  O12 UNL     1     -33.339   4.146   3.785  1.00 20.00    -0.297 OA
ENDROOT
BRANCH   6  10
HETATM   10  C11 UNL     1     -31.945   8.752   0.879  1.00 20.00    -0.018 C 
HETATM   11  C9  UNL     1     -31.540   7.971  -0.368  1.00 20.00     0.010 C 
HETATM   12  C10 UNL     1     -33.210   9.565   0.617  1.00 20.00     0.010 C 
ENDBRANCH   6  10
TORSDOF 1
