REMARK  1 active torsions:
REMARK  status: ('A' for Active; 'I' for Inactive)
REMARK    1  A    between atoms: C4_4  and  C9_9 
ROOT
HETATM    1  C1  UNL     1     -33.492   7.952   3.001  1.00 20.00     0.014 A 
HETATM    2  C2  UNL     1     -34.211   7.077   3.713  1.00 20.00     0.075 A 
HETATM    3  C3  UNL     1     -32.336   6.192   1.850  1.00 20.00     0.101 A 
HETATM    4  C4  UNL     1     -32.516   7.509   2.031  1.00 20.00    -0.039 A 
HETATM    5  C5  UNL     1     -34.017   5.610   3.515  1.00 20.00     0.246 A 
HETATM    6  C8  UNL     1     -32.809   3.833   2.313  1.00 20.00     0.159 C 
HETATM    7  N10 UNL     1     -33.057   5.248   2.563  1.00 20.00    -0.329 N 
HETATM    8  O11 UNL     1     -34.692   4.828   4.183  1.00 20.00    -0.268 OA
ENDROOT
BRANCH   4   9
HETATM    9  C9  UNL     1     -31.756   8.555   1.280  1.00 20.00     0.012 C 
HETATM   10  C6  UNL     1     -32.710   9.418   0.457  1.00 20.00     0.015 C 
HETATM   11  C7  UNL     1     -30.929   9.417   2.232  1.00 20.00     0.015 C 
ENDBRANCH   4   9
TORSDOF 1
