REMARK  1 active torsions:
REMARK  status: ('A' for Active; 'I' for Inactive)
REMARK    1  A    between atoms: C9_9  and  C12_12 
ROOT
HETATM    1  C1  UNL     1     -31.731   5.517   1.372  1.00 20.00     0.012 C 
HETATM    2  C2  UNL     1     -30.718   6.387   1.363  1.00 20.00     0.052 C 
HETATM    3  C3  UNL     1     -34.345   7.451   3.965  1.00 20.00    -0.025 C 
HETATM    4  C4  UNL     1     -33.371   8.119   3.323  1.00 20.00    -0.008 C 
HETATM    5  C5  UNL     1     -33.891   5.391   2.582  1.00 20.00    -0.014 C 
HETATM    6  C6  UNL     1     -32.915   6.075   1.969  1.00 20.00    -0.041 C 
HETATM    7  C7  UNL     1     -31.266   7.635   1.945  1.00 20.00     0.166 C 
HETATM    8  C8  UNL     1     -34.841   6.094   3.518  1.00 20.00     0.054 C 
HETATM    9  C9  UNL     1     -32.779   7.577   2.056  1.00 20.00     0.071 C 
HETATM   10  O13 UNL     1     -30.565   8.593   2.235  1.00 20.00    -0.292 OA
ENDROOT
BRANCH   9  11
HETATM   11  C12 UNL     1     -33.389   8.285   0.838  1.00 20.00     0.002 C 
HETATM   12  C10 UNL     1     -33.143   9.787   0.921  1.00 20.00     0.011 C 
HETATM   13  C11 UNL     1     -32.814   7.711  -0.451  1.00 20.00     0.011 C 
ENDBRANCH   9  11
TORSDOF 1
