REMARK  0 active torsions:
REMARK  status: ('A' for Active; 'I' for Inactive)
ROOT
HETATM    1  C1  UNL     1     -32.593   6.176   1.808  1.00 20.00     0.013 C 
HETATM    2  C2  UNL     1     -33.775   5.262   2.204  1.00 20.00     0.035 C 
HETATM    3  C3  UNL     1     -32.779   7.690   2.065  1.00 20.00     0.074 C 
HETATM    4  C4  UNL     1     -34.224   7.789   4.600  1.00 20.00     0.108 C 
HETATM    5  C5  UNL     1     -34.110   5.519   3.619  1.00 20.00     0.152 A 
HETATM    6  C6  UNL     1     -34.894   6.798   3.746  1.00 20.00     0.160 A 
HETATM    7  O7  UNL     1     -35.416   5.547   4.180  1.00 20.00    -0.375 OA
HETATM    8  S8  UNL     1     -32.610   8.264   3.824  1.00 20.00    -0.166 SA
ENDROOT
TORSDOF 0
