REMARK  1 active torsions:
REMARK  status: ('A' for Active; 'I' for Inactive)
REMARK    1  A    between atoms: C4_4  and  C9_9 
ROOT
HETATM    1  C1  UNL     1     -33.390   7.455   3.425  1.00 20.00     0.174 C 
HETATM    2  C2  UNL     1     -33.129   5.837   1.436  1.00 20.00     0.083 C 
HETATM    3  C3  UNL     1     -33.859   6.159   2.748  1.00 20.00     0.015 C 
HETATM    4  C4  UNL     1     -31.725   8.169   1.835  1.00 20.00     0.108 C 
HETATM    5  C5  UNL     1     -33.786   4.994   3.738  1.00 20.00     0.012 C 
HETATM    6  C6  UNL     1     -30.602   8.693   2.735  1.00 20.00     0.058 C 
HETATM    7  O10 UNL     1     -32.999   8.422   2.456  1.00 20.00    -0.369 OA
HETATM    8  S11 UNL     1     -31.406   6.403   1.447  1.00 20.00    -0.131 SA
ENDROOT
BRANCH   4   9
HETATM    9  C9  UNL     1     -31.733   8.952   0.518  1.00 20.00     0.022 C 
HETATM   10  C7  UNL     1     -32.664  10.155   0.622  1.00 20.00     0.013 C 
HETATM   11  C8  UNL     1     -30.319   9.390   0.154  1.00 20.00     0.013 C 
ENDBRANCH   4   9
TORSDOF 1
