REMARK  0 active torsions:
REMARK  status: ('A' for Active; 'I' for Inactive)
ROOT
HETATM    1  C1  UNL     1     -34.361   6.357   3.427  1.00 20.00     0.218 C 
HETATM    2  C2  UNL     1     -33.950   5.370   2.356  1.00 20.00     0.105 C 
HETATM    3  C3  UNL     1     -32.627   5.914   1.797  1.00 20.00     0.040 C 
HETATM    4  C4  UNL     1     -31.326   8.131   2.213  1.00 20.00     0.033 A 
HETATM    5  C5  UNL     1     -32.393   8.443   1.205  1.00 20.00     0.033 A 
HETATM    6  C6  UNL     1     -32.617   7.355   2.224  1.00 20.00     0.033 A 
HETATM    7  N7  UNL     1     -33.580   7.491   3.264  1.00 20.00    -0.352 N 
HETATM    8  O8  UNL     1     -35.250   6.180   4.246  1.00 20.00    -0.274 OA
HETATM    9  H17 UNL     1     -33.684   8.328   3.826  1.00 20.00     0.163 HD
ENDROOT
TORSDOF 0
