REMARK  3 active torsions:
REMARK  status: ('A' for Active; 'I' for Inactive)
REMARK    1  A    between atoms: C1_1  and  C9_9 
REMARK    2  A    between atoms: C1_1  and  O11_11 
REMARK    3  A    between atoms: C8_8  and  C9_9 
ROOT
HETATM    1  C2  UNL     1     -33.883   6.079   2.738  1.00 20.00     0.005 C 
HETATM    2  C3  UNL     1     -33.558   7.283   3.639  1.00 20.00     0.005 C 
HETATM    3  C4  UNL     1     -31.538   6.077   1.895  1.00 20.00     0.005 C 
HETATM    4  C5  UNL     1     -31.213   7.279   2.795  1.00 20.00     0.005 C 
HETATM    5  C6  UNL     1     -33.004   6.332   1.496  1.00 20.00    -0.010 C 
HETATM    6  C7  UNL     1     -32.533   8.073   2.800  1.00 20.00    -0.010 C 
HETATM    7  C8  UNL     1     -33.086   7.862   1.382  1.00 20.00     0.003 C 
ENDROOT
BRANCH   7   8
HETATM    8  C9  UNL     1     -32.297   8.498   0.248  1.00 20.00     0.115 C 
BRANCH   8   9
HETATM    9  C1  UNL     1     -32.702   9.930   0.015  1.00 20.00     0.139 C 
HETATM   10  O10 UNL     1     -32.623  10.844   0.822  1.00 20.00    -0.650 OA
BRANCH   9  11
HETATM   11  O11 UNL     1     -33.181  10.077  -1.247  1.00 20.00    -0.776 OA
HETATM   12  H25 UNL     1     -33.454  11.001  -1.429  1.00 20.00     0.167 HD
ENDBRANCH   9  11
ENDBRANCH   8   9
ENDBRANCH   7   8
TORSDOF 3
