REMARK  1 active torsions:
REMARK  status: ('A' for Active; 'I' for Inactive)
REMARK    1  A    between atoms: C6_6  and  C8_8 
ROOT
HETATM    1  C1  UNL     1     -32.804   7.160   2.472  1.00 20.00     0.061 C 
HETATM    2  C2  UNL     1     -34.991   5.531   4.095  1.00 20.00     0.066 C 
HETATM    3  C3  UNL     1     -33.436   6.020   1.684  1.00 20.00     0.170 C 
HETATM    4  C4  UNL     1     -33.785   7.800   3.404  1.00 20.00     0.153 A 
HETATM    5  C5  UNL     1     -34.816   7.017   4.182  1.00 20.00     0.153 A 
HETATM    6  C6  UNL     1     -33.725   4.741   3.743  1.00 20.00     0.123 C 
HETATM    7  O9  UNL     1     -33.411   4.760   2.349  1.00 20.00    -0.386 OA
HETATM    8  O10 UNL     1     -33.600   7.465   4.790  1.00 20.00    -0.375 OA
ENDROOT
BRANCH   6   9
HETATM    9  C8  UNL     1     -33.905   3.269   4.112  1.00 20.00     0.027 C 
HETATM   10  C7  UNL     1     -32.701   2.460   3.756  1.00 20.00     0.007 C 
ENDBRANCH   6   9
TORSDOF 1
