REMARK  0 active torsions:
REMARK  status: ('A' for Active; 'I' for Inactive)
ROOT
HETATM    1  C1  UNL     1     -33.466   6.923   3.088  1.00 20.00     0.117 A 
HETATM    2  C2  UNL     1     -33.279   5.818   2.362  1.00 20.00    -0.042 A 
HETATM    3  C3  UNL     1     -32.529   7.929   2.580  1.00 20.00     0.186 A 
HETATM    4  C4  UNL     1     -34.043   4.568   2.629  1.00 20.00     0.039 C 
HETATM    5  C5  UNL     1     -32.249   5.939   1.287  1.00 20.00     0.049 A 
HETATM    6  C6  UNL     1     -34.764   4.684   3.978  1.00 20.00     0.031 C 
HETATM    7  C7  UNL     1     -35.342   6.089   4.177  1.00 20.00     0.176 C 
HETATM    8  C8  UNL     1     -31.673   7.354   1.472  1.00 20.00     0.062 A 
HETATM    9  C9  UNL     1     -31.752   8.196   0.210  1.00 20.00     0.018 C 
HETATM   10  O10 UNL     1     -32.460   9.069   3.012  1.00 20.00    -0.290 OA
HETATM   11  O11 UNL     1     -34.347   7.125   4.106  1.00 20.00    -0.347 OA
ENDROOT
TORSDOF 0
