REMARK  1 active torsions:
REMARK  status: ('A' for Active; 'I' for Inactive)
REMARK    1  A    between atoms: C7_7  and  C11_11 
ROOT
HETATM    1  C1  UNL     1     -34.000   6.949   3.510  1.00 20.00     0.131 C 
HETATM    2  C2  UNL     1     -33.266   8.156   4.040  1.00 20.00     0.079 C 
HETATM    3  C3  UNL     1     -33.085   9.195   2.945  1.00 20.00     0.017 C 
HETATM    4  C4  UNL     1     -31.293   7.685   1.788  1.00 20.00     0.016 A 
HETATM    5  C5  UNL     1     -33.505   6.308   2.224  1.00 20.00     0.056 C 
HETATM    6  C6  UNL     1     -32.654   7.193   1.354  1.00 20.00     0.006 A 
HETATM    7  C7  UNL     1     -32.450   8.655   1.684  1.00 20.00    -0.032 A 
HETATM    8  C8  UNL     1     -32.796   4.995   2.543  1.00 20.00     0.018 C 
HETATM    9  O12 UNL     1     -34.925   6.446   4.151  1.00 20.00    -0.298 OA
ENDROOT
BRANCH   7  10
HETATM   10  C11 UNL     1     -32.426   9.637   0.541  1.00 20.00    -0.014 C 
HETATM   11  C9  UNL     1     -31.201   9.420  -0.357  1.00 20.00     0.010 C 
HETATM   12  C10 UNL     1     -33.708   9.546  -0.300  1.00 20.00     0.010 C 
ENDBRANCH   7  10
TORSDOF 1
