REMARK  1 active torsions:
REMARK  status: ('A' for Active; 'I' for Inactive)
REMARK    1  A    between atoms: C2_2  and  C4_4 
ROOT
HETATM    1  C1  UNL     1     -32.986   5.654   2.096  1.00 20.00     0.171 A 
HETATM    2  C2  UNL     1     -33.306   7.042   2.615  1.00 20.00     0.175 A 
HETATM    3  C3  UNL     1     -31.671   5.287   1.507  1.00 20.00     0.044 C 
HETATM    4  O5  UNL     1     -33.748   6.590   1.325  1.00 20.00    -0.352 OA
HETATM    5 CL6  UNL     1     -34.513   7.158   3.900  1.00 20.00    -0.084 Cl
ENDROOT
BRANCH   2   6
HETATM    6  C4  UNL     1     -32.312   8.156   2.560  1.00 20.00     0.172 C 
HETATM    7 CL7  UNL     1     -32.243   8.876   0.930  1.00 20.00    -0.126 Cl
ENDBRANCH   2   6
TORSDOF 1
