REMARK  1 active torsions:
REMARK  status: ('A' for Active; 'I' for Inactive)
REMARK    1  A    between atoms: C3_3  and  C6_6 
ROOT
HETATM    1  C1  UNL     1     -33.009   7.942   2.858  1.00 20.00    -0.009 C 
HETATM    2  C2  UNL     1     -33.569   6.744   3.099  1.00 20.00    -0.086 C 
HETATM    3  C4  UNL     1     -33.270   5.537   2.243  1.00 20.00     0.037 C 
HETATM    4  C5  UNL     1     -32.042   7.084   0.675  1.00 20.00     0.023 C 
HETATM    5  C6  UNL     1     -32.068   8.200   1.720  1.00 20.00     0.110 C 
HETATM    6  C7  UNL     1     -32.027   5.708   1.351  1.00 20.00    -0.014 C 
HETATM    7  C8  UNL     1     -34.532   6.530   4.229  1.00 20.00     0.043 C 
HETATM    8  C9  UNL     1     -31.943   4.587   0.317  1.00 20.00     0.010 C 
ENDROOT
BRANCH   5   9
HETATM    9  C3  UNL     1     -32.549   9.450   1.013  1.00 20.00     0.180 C 
HETATM   10  O10 UNL     1     -33.173  10.274   1.738  1.00 20.00    -0.647 OA
HETATM   11  O11 UNL     1     -32.264   9.506  -0.216  1.00 20.00    -0.647 OA
ENDBRANCH   5   9
TORSDOF 1
