REMARK  2 active torsions:
REMARK  status: ('A' for Active; 'I' for Inactive)
REMARK    1  A    between atoms: C1_1  and  C4_4 
REMARK    2  A    between atoms: C1_1  and  C5_5 
ROOT
HETATM    1  C1  UNL     1     -33.051   6.588   2.010  1.00 20.00     0.163 C 
HETATM    2  O6  UNL     1     -33.311   5.831   1.072  1.00 20.00    -0.295 OA
ENDROOT
BRANCH   1   3
HETATM    3  C4  UNL     1     -31.784   7.424   2.031  1.00 20.00     0.194 C 
HETATM    4 CL7  UNL     1     -32.076   9.014   1.304  1.00 20.00    -0.122 Cl
ENDBRANCH   1   3
BRANCH   1   5
HETATM    5  C5  UNL     1     -33.999   6.703   3.215  1.00 20.00     0.091 C 
HETATM    6  C2  UNL     1     -33.449   7.689   4.249  1.00 20.00     0.041 C 
HETATM    7  C3  UNL     1     -34.264   5.354   3.882  1.00 20.00     0.041 C 
HETATM    8 CL8  UNL     1     -35.538   7.362   2.569  1.00 20.00    -0.112 Cl
ENDBRANCH   1   5
TORSDOF 2
