REMARK  1 active torsions:
REMARK  status: ('A' for Active; 'I' for Inactive)
REMARK    1  A    between atoms: C6_6  and  C10_10 
ROOT
HETATM    1  C1  UNL     1     -34.008   7.844   3.886  1.00 20.00     0.054 A 
HETATM    2  C2  UNL     1     -33.659   5.768   2.478  1.00 20.00     0.060 A 
HETATM    3  C3  UNL     1     -33.029   8.446   3.204  1.00 20.00     0.025 A 
HETATM    4  C4  UNL     1     -32.677   6.381   1.798  1.00 20.00    -0.037 A 
HETATM    5  C5  UNL     1     -34.416   6.467   3.541  1.00 20.00     0.172 A 
HETATM    6  C6  UNL     1     -32.280   7.825   2.053  1.00 20.00     0.147 A 
HETATM    7  C7  UNL     1     -31.891   5.628   0.761  1.00 20.00     0.047 C 
HETATM    8  O11 UNL     1     -35.341   5.916   4.127  1.00 20.00    -0.289 OA
HETATM    9  F12 UNL     1     -30.943   7.870   2.343  1.00 20.00    -0.233 F 
ENDROOT
BRANCH   6  10
HETATM   10  C10 UNL     1     -32.492   8.691   0.807  1.00 20.00     0.026 C 
HETATM   11  C8  UNL     1     -33.972   8.743   0.441  1.00 20.00     0.014 C 
HETATM   12  C9  UNL     1     -31.942  10.095   1.035  1.00 20.00     0.014 C 
ENDBRANCH   6  10
TORSDOF 1
