REMARK  2 active torsions:
REMARK  status: ('A' for Active; 'I' for Inactive)
REMARK    1  A    between atoms: C3_3  and  C5_5 
REMARK    2  A    between atoms: C3_3  and  O9_9 
ROOT
HETATM    1  C1  UNL     1     -34.761   4.944   4.164  1.00 20.00    -0.002 A 
HETATM    2  C2  UNL     1     -33.487   5.110   3.816  1.00 20.00     0.013 A 
HETATM    3  C4  UNL     1     -35.455   6.253   4.161  1.00 20.00     0.196 A 
HETATM    4  C5  UNL     1     -33.225   6.544   3.554  1.00 20.00     0.244 A 
HETATM    5  O8  UNL     1     -34.460   7.230   3.795  1.00 20.00    -0.368 OA
ENDROOT
BRANCH   4   6
HETATM    6  C3  UNL     1     -32.872   6.728   2.114  1.00 20.00     0.291 C 
HETATM    7  O7  UNL     1     -32.736   5.808   1.319  1.00 20.00    -0.262 OA
BRANCH   6   8
HETATM    8  O9  UNL     1     -32.731   8.057   1.846  1.00 20.00    -0.324 OA
HETATM    9  C6  UNL     1     -32.390   8.379   0.494  1.00 20.00     0.213 C 
ENDBRANCH   6   8
ENDBRANCH   4   6
TORSDOF 2
