REMARK  3 active torsions:
REMARK  status: ('A' for Active; 'I' for Inactive)
REMARK    1  A    between atoms: C1_1  and  C7_7 
REMARK    2  A    between atoms: C1_1  and  N9_9 
REMARK    3  A    between atoms: C7_7  and  C8_8 
ROOT
HETATM    1  C2  UNL     1     -34.714   5.106   4.231  1.00 20.00     0.021 C 
HETATM    2  C3  UNL     1     -35.234   6.531   4.319  1.00 20.00     0.021 C 
HETATM    3  C4  UNL     1     -33.993   5.087   2.887  1.00 20.00     0.123 C 
HETATM    4  C5  UNL     1     -34.093   7.347   3.717  1.00 20.00     0.123 C 
HETATM    5  N9  UNL     1     -33.499   6.451   2.732  1.00 20.00    -0.375 N 
ENDROOT
BRANCH   5   6
HETATM    6  C1  UNL     1     -32.598   6.836   1.791  1.00 20.00     0.075 C 
HETATM    7  S10 UNL     1     -31.965   5.768   0.673  1.00 20.00    -0.066 SA
BRANCH   6   8
HETATM    8  C7  UNL     1     -32.229   8.304   1.815  1.00 20.00     0.069 C 
BRANCH   8   9
HETATM    9  C8  UNL     1     -33.161   9.117   0.917  1.00 20.00     0.002 C 
HETATM   10  C6  UNL     1     -32.822  10.598   0.958  1.00 20.00     0.005 C 
ENDBRANCH   8   9
ENDBRANCH   6   8
ENDBRANCH   5   6
TORSDOF 3
