REMARK  2 active torsions:
REMARK  status: ('A' for Active; 'I' for Inactive)
REMARK    1  A    between atoms: C3_3  and  C9_9 
REMARK    2  A    between atoms: C3_3  and  S10_10 
ROOT
HETATM    1  C1  UNL     1     -33.684   4.851   3.654  1.00 20.00     0.010 A 
HETATM    2  C2  UNL     1     -34.257   6.260   3.705  1.00 20.00    -0.025 A 
HETATM    3  C3  UNL     1     -33.427   5.795   2.483  1.00 20.00     0.019 A 
HETATM    4  C4  UNL     1     -32.611   4.374   4.573  1.00 20.00     0.012 C 
HETATM    5  C5  UNL     1     -35.766   6.377   3.608  1.00 20.00     0.017 C 
HETATM    6  C6  UNL     1     -33.682   7.293   4.649  1.00 20.00     0.017 C 
ENDROOT
BRANCH   3   7
HETATM    7  C9  UNL     1     -32.042   6.347   2.237  1.00 20.00    -0.003 C 
HETATM    8  C7  UNL     1     -31.226   5.412   1.338  1.00 20.00     0.011 C 
HETATM    9  C8  UNL     1     -32.108   7.746   1.614  1.00 20.00     0.011 C 
ENDBRANCH   3   7
BRANCH   3  10
HETATM   10  S10 UNL     1     -34.250   5.428   0.951  1.00 20.00    -0.171 SA
HETATM   11  H28 UNL     1     -33.765   6.458   0.235  1.00 20.00     0.102 HD
ENDBRANCH   3  10
TORSDOF 2
