REMARK  0 active torsions:
REMARK  status: ('A' for Active; 'I' for Inactive)
ROOT
HETATM    1  C1  UNL     1     -31.673   6.048   1.222  1.00 20.00    -0.029 A 
HETATM    2  C2  UNL     1     -32.867   5.452   1.294  1.00 20.00    -0.023 A 
HETATM    3  C3  UNL     1     -33.447   7.501   3.567  1.00 20.00     0.155 C 
HETATM    4  C4  UNL     1     -31.688   7.488   1.634  1.00 20.00     0.040 A 
HETATM    5  C5  UNL     1     -33.899   6.403   1.774  1.00 20.00     0.050 A 
HETATM    6  C6  UNL     1     -33.131   7.728   2.076  1.00 20.00     0.071 A 
HETATM    7  C7  UNL     1     -34.373   6.285   3.266  1.00 20.00     0.101 C 
HETATM    8  C8  UNL     1     -35.856   6.604   3.454  1.00 20.00     0.042 C 
HETATM    9  O9  UNL     1     -33.104   8.068   4.584  1.00 20.00    -0.295 OA
HETATM   10 CL10 UNL     1     -33.900   4.835   4.214  1.00 20.00    -0.111 Cl
ENDROOT
TORSDOF 0
