REMARK  1 active torsions:
REMARK  status: ('A' for Active; 'I' for Inactive)
REMARK    1  A    between atoms: C5_5  and  C8_8 
ROOT
HETATM    1  C1  UNL     1     -32.824   8.851   2.399  1.00 20.00     0.006 A 
HETATM    2  C2  UNL     1     -33.218   7.650   2.816  1.00 20.00     0.076 A 
HETATM    3  C3  UNL     1     -32.626   6.665   1.905  1.00 20.00     0.171 A 
HETATM    4  C4  UNL     1     -31.779   7.337   0.860  1.00 20.00     0.093 A 
HETATM    5  C5  UNL     1     -31.949   8.829   1.178  1.00 20.00     0.020 A 
HETATM    6  O9  UNL     1     -32.793   5.458   1.994  1.00 20.00    -0.291 OA
HETATM    7 CL10 UNL     1     -34.197   7.256   4.128  1.00 20.00    -0.081 Cl
ENDROOT
BRANCH   5   8
HETATM    8  C8  UNL     1     -32.580   9.597   0.023  1.00 20.00    -0.015 C 
HETATM    9  C6  UNL     1     -32.842  11.049   0.419  1.00 20.00     0.010 C 
HETATM   10  C7  UNL     1     -31.691   9.533  -1.218  1.00 20.00     0.010 C 
ENDBRANCH   5   8
TORSDOF 1
