REMARK  0 active torsions:
REMARK  status: ('A' for Active; 'I' for Inactive)
ROOT
HETATM    1  C1  UNL     1     -32.809   7.829   3.004  1.00 20.00     0.050 C 
HETATM    2  C2  UNL     1     -33.749   7.306   3.801  1.00 20.00    -0.014 C 
HETATM    3  C3  UNL     1     -32.373   7.114   1.782  1.00 20.00     0.188 C 
HETATM    4  C4  UNL     1     -34.231   5.479   2.123  1.00 20.00     0.064 C 
HETATM    5  C5  UNL     1     -34.499   6.016   3.549  1.00 20.00    -0.026 C 
HETATM    6  C6  UNL     1     -32.808   5.673   1.595  1.00 20.00     0.164 C 
HETATM    7  C7  UNL     1     -36.012   6.293   3.681  1.00 20.00     0.019 C 
HETATM    8  C8  UNL     1     -34.118   4.986   4.626  1.00 20.00     0.019 C 
HETATM    9  C9  UNL     1     -31.768   4.745   2.207  1.00 20.00     0.060 C 
HETATM   10  O10 UNL     1     -31.637   7.679   0.975  1.00 20.00    -0.290 OA
HETATM   11  F11 UNL     1     -32.847   5.376   0.257  1.00 20.00    -0.235 F 
ENDROOT
TORSDOF 0
