REMARK  3 active torsions:
REMARK  status: ('A' for Active; 'I' for Inactive)
REMARK    1  A    between atoms: C4_4  and  C8_8 
REMARK    2  A    between atoms: C7_7  and  C11_11 
REMARK    3  A    between atoms: C8_8  and  O12_12 
ROOT
HETATM    1  C1  UNL     1     -32.737   8.652   3.035  1.00 20.00    -0.022 C 
HETATM    2  C2  UNL     1     -33.517   7.795   3.709  1.00 20.00     0.011 C 
HETATM    3  C5  UNL     1     -32.570   7.014   1.114  1.00 20.00     0.012 C 
HETATM    4  C6  UNL     1     -33.930   6.494   1.581  1.00 20.00     0.047 C 
HETATM    5  C7  UNL     1     -32.300   8.446   1.608  1.00 20.00     0.011 C 
HETATM    6  C8  UNL     1     -34.074   6.527   3.117  1.00 20.00     0.092 C 
ENDROOT
BRANCH   6   7
HETATM    7  C4  UNL     1     -33.431   5.331   3.760  1.00 20.00     0.004 C 
HETATM    8  C3  UNL     1     -34.104   4.390   4.431  1.00 20.00     0.010 C 
ENDBRANCH   6   7
BRANCH   6   9
HETATM    9  O12 UNL     1     -35.472   6.488   3.422  1.00 20.00    -0.382 OA
HETATM   10  H30 UNL     1     -35.860   7.277   3.018  1.00 20.00     0.211 HD
ENDBRANCH   6   9
BRANCH   5  11
HETATM   11  C11 UNL     1     -32.974   9.485   0.708  1.00 20.00    -0.015 C 
HETATM   12  C9  UNL     1     -33.044  10.837   1.412  1.00 20.00     0.010 C 
HETATM   13  C10 UNL     1     -32.229   9.606  -0.619  1.00 20.00     0.010 C 
ENDBRANCH   5  11
TORSDOF 3
