REMARK  5 active torsions:
REMARK  status: ('A' for Active; 'I' for Inactive)
REMARK    1  A    between atoms: C2_2  and  C6_6 
REMARK    2  A    between atoms: C2_2  and  C8_8 
REMARK    3  A    between atoms: C6_6  and  O11_11 
REMARK    4  A    between atoms: C7_7  and  O10_10 
REMARK    5  A    between atoms: C7_7  and  O11_11 
ROOT
HETATM    1  C1  UNL     1     -33.857   5.235   1.306  1.00 20.00     0.209 A 
HETATM    2  C2  UNL     1     -33.775   6.194   2.469  1.00 20.00     0.106 A 
HETATM    3  O9  UNL     1     -32.733   5.246   2.199  1.00 20.00    -0.372 OA
ENDROOT
BRANCH   2   4
HETATM    4  C6  UNL     1     -33.376   7.613   2.227  1.00 20.00     0.211 C 
BRANCH   4   5
HETATM    5  O11 UNL     1     -32.320   7.660   1.269  1.00 20.00    -0.364 OA
BRANCH   5   6
HETATM    6  C7  UNL     1     -31.900   8.996   1.001  1.00 20.00     0.337 C 
BRANCH   6   7
HETATM    7  O10 UNL     1     -32.763   9.714   0.119  1.00 20.00    -0.372 OA
HETATM    8  C5  UNL     1     -32.336  11.055  -0.078  1.00 20.00     0.204 C 
ENDBRANCH   6   7
ENDBRANCH   5   6
ENDBRANCH   4   5
ENDBRANCH   2   4
BRANCH   2   9
HETATM    9  C8  UNL     1     -34.560   5.898   3.745  1.00 20.00     0.016 C 
HETATM   10  C3  UNL     1     -35.999   6.395   3.618  1.00 20.00     0.012 C 
HETATM   11  C4  UNL     1     -34.534   4.403   4.057  1.00 20.00     0.012 C 
ENDBRANCH   2   9
TORSDOF 5
