REMARK  1 active torsions:
REMARK  status: ('A' for Active; 'I' for Inactive)
REMARK    1  A    between atoms: C1_1  and  C10_10 
ROOT
HETATM    1  C1  UNL     1     -32.807   6.869   1.993  1.00 20.00     0.025 C 
HETATM    2  C2  UNL     1     -32.315   8.021   1.554  1.00 20.00    -0.038 C 
HETATM    3  C3  UNL     1     -33.608   7.233   3.179  1.00 20.00     0.290 C 
HETATM    4  C4  UNL     1     -31.773   8.466   0.245  1.00 20.00     0.038 C 
HETATM    5  C5  UNL     1     -32.226   9.938   0.209  1.00 20.00     0.007 C 
HETATM    6  C6  UNL     1     -33.224  10.109   1.366  1.00 20.00     0.037 C 
HETATM    7  C7  UNL     1     -32.688   9.154   2.415  1.00 20.00     0.162 C 
HETATM    8  O11 UNL     1     -34.207   6.446   3.892  1.00 20.00    -0.260 OA
HETATM    9  O12 UNL     1     -33.630   8.600   3.315  1.00 20.00    -0.308 OA
ENDROOT
BRANCH   1  10
HETATM   10  C10 UNL     1     -32.802   5.518   1.393  1.00 20.00     0.017 C 
HETATM   11  C8  UNL     1     -31.370   5.039   1.130  1.00 20.00     0.015 C 
HETATM   12  C9  UNL     1     -33.543   4.507   2.277  1.00 20.00     0.015 C 
ENDBRANCH   1  10
TORSDOF 1
