REMARK  1 active torsions:
REMARK  status: ('A' for Active; 'I' for Inactive)
REMARK    1  A    between atoms: C6_6  and  C8_8 
ROOT
HETATM    1  C1  UNL     1     -33.417   8.423   3.280  1.00 20.00     0.061 C 
HETATM    2  C2  UNL     1     -32.255   5.619   1.857  1.00 20.00     0.066 C 
HETATM    3  C3  UNL     1     -33.950   7.271   4.168  1.00 20.00     0.170 C 
HETATM    4  C4  UNL     1     -32.192   7.938   2.610  1.00 20.00     0.153 A 
HETATM    5  C5  UNL     1     -32.616   7.003   1.496  1.00 20.00     0.153 A 
HETATM    6  C6  UNL     1     -32.904   5.270   3.233  1.00 20.00     0.123 C 
HETATM    7  O9  UNL     1     -34.123   6.016   3.473  1.00 20.00    -0.386 OA
HETATM    8  O10 UNL     1     -31.777   8.120   1.268  1.00 20.00    -0.375 OA
ENDROOT
BRANCH   6   9
HETATM    9  C8  UNL     1     -33.261   3.789   3.290  1.00 20.00     0.027 C 
HETATM   10  C7  UNL     1     -33.879   3.418   4.599  1.00 20.00     0.007 C 
ENDBRANCH   6   9
TORSDOF 1
