REMARK  1 active torsions:
REMARK  status: ('A' for Active; 'I' for Inactive)
REMARK    1  A    between atoms: C2_2  and  C6_6 
ROOT
HETATM    1  C3  UNL     1     -32.261   8.526   2.551  1.00 20.00     0.003 C 
HETATM    2  C4  UNL     1     -33.321   7.959   3.517  1.00 20.00     0.011 C 
HETATM    3  C5  UNL     1     -31.946   7.637   1.346  1.00 20.00     0.034 C 
HETATM    4  C6  UNL     1     -33.918   6.603   3.091  1.00 20.00     0.039 C 
HETATM    5  C7  UNL     1     -31.759   6.221   1.782  1.00 20.00     0.151 A 
HETATM    6  C8  UNL     1     -32.800   5.668   2.712  1.00 20.00     0.158 A 
HETATM    7  O9  UNL     1     -32.753   5.296   1.329  1.00 20.00    -0.375 OA
ENDROOT
BRANCH   4   8
HETATM    8  C2  UNL     1     -34.821   6.072   4.161  1.00 20.00    -0.030 C 
HETATM    9  C1  UNL     1     -35.062   4.772   4.361  1.00 20.00     0.007 C 
ENDBRANCH   4   8
TORSDOF 1
