REMARK  1 active torsions:
REMARK  status: ('A' for Active; 'I' for Inactive)
REMARK    1  A    between atoms: C2_2  and  C9_9 
ROOT
HETATM    1  C1  UNL     1     -33.163   8.561   2.108  1.00 20.00     0.057 A 
HETATM    2  C2  UNL     1     -32.420   8.612   0.999  1.00 20.00    -0.069 A 
HETATM    3  C3  UNL     1     -33.179   7.151   2.517  1.00 20.00     0.189 A 
HETATM    4  C4  UNL     1     -31.848   7.297   0.555  1.00 20.00     0.086 A 
HETATM    5  C5  UNL     1     -32.412   6.284   1.553  1.00 20.00     0.167 A 
HETATM    6  C6  UNL     1     -31.344   5.462   2.251  1.00 20.00     0.061 C 
HETATM    7  O10 UNL     1     -33.779   6.751   3.503  1.00 20.00    -0.290 OA
HETATM    8  F11 UNL     1     -33.256   5.438   0.902  1.00 20.00    -0.234 F 
ENDROOT
BRANCH   2   9
HETATM    9  C9  UNL     1     -32.124   9.846   0.219  1.00 20.00     0.006 C 
HETATM   10  C7  UNL     1     -32.610   9.701  -1.223  1.00 20.00     0.014 C 
HETATM   11  C8  UNL     1     -32.752  11.077   0.876  1.00 20.00     0.014 C 
ENDBRANCH   2   9
TORSDOF 1
