REMARK  0 active torsions:
REMARK  status: ('A' for Active; 'I' for Inactive)
ROOT
HETATM    1  C1  UNL     1     -32.700   5.453   1.219  1.00 20.00     0.154 A 
HETATM    2  C2  UNL     1     -33.163   6.166   2.298  1.00 20.00     0.005 A 
HETATM    3  C3  UNL     1     -32.719   7.470   2.122  1.00 20.00     0.013 A 
HETATM    4  C4  UNL     1     -32.127   7.544   0.900  1.00 20.00     0.062 A 
HETATM    5  C5  UNL     1     -34.509   6.989   4.072  1.00 20.00     0.143 C 
HETATM    6  C6  UNL     1     -34.026   5.920   3.396  1.00 20.00    -0.027 C 
HETATM    7  C7  UNL     1     -31.776   8.786   0.185  1.00 20.00     0.066 C 
HETATM    8  C8  UNL     1     -32.001  10.003   1.136  1.00 20.00     0.009 C 
HETATM    9  C9  UNL     1     -33.198   9.852   2.126  1.00 20.00     0.038 C 
HETATM   10  C10 UNL     1     -33.044   8.593   3.010  1.00 20.00     0.164 C 
HETATM   11  C11 UNL     1     -34.390   4.501   3.681  1.00 20.00     0.051 C 
HETATM   12  O12 UNL     1     -32.068   6.306   0.333  1.00 20.00    -0.326 OA
HETATM   13  O13 UNL     1     -34.218   8.332   3.823  1.00 20.00    -0.352 OA
ENDROOT
TORSDOF 0
