REMARK  3 active torsions:
REMARK  status: ('A' for Active; 'I' for Inactive)
REMARK    1  A    between atoms: C2_2  and  C6_6 
REMARK    2  A    between atoms: C3_3  and  C7_7 
REMARK    3  A    between atoms: C7_7  and  C8_8 
ROOT
HETATM    1  C1  UNL     1     -33.284   6.123   1.317  1.00 20.00     0.100 C 
HETATM    2  C2  UNL     1     -32.485   8.538   1.592  1.00 20.00     0.172 A 
HETATM    3  C3  UNL     1     -32.711   7.145   2.142  1.00 20.00     0.175 A 
HETATM    4  N9  UNL     1     -33.748   5.295   0.650  1.00 20.00    -0.194 NA
HETATM    5  O10 UNL     1     -31.422   7.583   1.679  1.00 20.00    -0.353 OA
ENDROOT
BRANCH   3   6
HETATM    6  C7  UNL     1     -32.776   6.947   3.622  1.00 20.00     0.056 C 
BRANCH   6   7
HETATM    7  C8  UNL     1     -34.181   7.208   4.186  1.00 20.00    -0.000 C 
HETATM    8  C5  UNL     1     -35.233   6.307   3.557  1.00 20.00     0.005 C 
ENDBRANCH   6   7
ENDBRANCH   3   6
BRANCH   2   9
HETATM    9  C6  UNL     1     -32.840   8.939   0.203  1.00 20.00     0.032 C 
HETATM   10  C4  UNL     1     -31.777   9.780  -0.460  1.00 20.00     0.007 C 
ENDBRANCH   2   9
TORSDOF 3
