REMARK  3 active torsions:
REMARK  status: ('A' for Active; 'I' for Inactive)
REMARK    1  A    between atoms: C1_1  and  C7_7 
REMARK    2  A    between atoms: C2_2  and  C8_8 
REMARK    3  A    between atoms: C7_7  and  C9_9 
ROOT
HETATM    1  C1  UNL     1     -32.793   7.856   1.528  1.00 20.00     0.062 A 
HETATM    2  C2  UNL     1     -32.019   8.344   0.338  1.00 20.00     0.064 A 
HETATM    3  S10 UNL     1     -31.176   8.374   1.845  1.00 20.00    -0.157 SA
ENDROOT
BRANCH   1   4
HETATM    4  C7  UNL     1     -33.116   6.376   1.680  1.00 20.00     0.020 C 
BRANCH   4   5
HETATM    5  C9  UNL     1     -33.384   5.951   3.134  1.00 20.00    -0.022 C 
HETATM    6  C5  UNL     1     -34.567   6.700   3.752  1.00 20.00     0.009 C 
HETATM    7  C6  UNL     1     -33.638   4.443   3.196  1.00 20.00     0.009 C 
ENDBRANCH   4   5
ENDBRANCH   1   4
BRANCH   2   8
HETATM    8  C8  UNL     1     -32.364   9.644  -0.302  1.00 20.00    -0.008 C 
HETATM    9  C3  UNL     1     -32.745  10.713   0.739  1.00 20.00     0.011 C 
HETATM   10  C4  UNL     1     -31.213  10.177  -1.176  1.00 20.00     0.011 C 
ENDBRANCH   2   8
TORSDOF 3
