REMARK  0 active torsions:
REMARK  status: ('A' for Active; 'I' for Inactive)
ROOT
HETATM    1  C1  UNL     1     -32.215   7.370   1.169  1.00 20.00     0.088 C 
HETATM    2  C2  UNL     1     -33.142   5.519   2.402  1.00 20.00    -0.041 C 
HETATM    3  C3  UNL     1     -33.855   6.370   3.360  1.00 20.00    -0.050 C 
HETATM    4  C4  UNL     1     -32.387   5.982   1.393  1.00 20.00     0.101 C 
HETATM    5  C5  UNL     1     -33.511   7.631   3.665  1.00 20.00    -0.081 C 
HETATM    6  C6  UNL     1     -33.321   4.027   2.603  1.00 20.00     0.044 C 
HETATM    7  C7  UNL     1     -35.010   5.691   4.054  1.00 20.00     0.040 C 
HETATM    8  C8  UNL     1     -34.581   4.411   4.781  1.00 20.00     0.009 C 
HETATM    9  C9  UNL     1     -33.418   3.668   4.094  1.00 20.00    -0.014 C 
HETATM   10  C10 UNL     1     -34.287   8.446   4.657  1.00 20.00     0.043 C 
HETATM   11  C11 UNL     1     -32.330   8.305   3.034  1.00 20.00     0.043 C 
HETATM   12  C12 UNL     1     -33.541   2.158   4.293  1.00 20.00     0.010 C 
HETATM   13  N13 UNL     1     -32.069   8.505   0.979  1.00 20.00    -0.192 NA
ENDROOT
TORSDOF 0
