REMARK  1 active torsions:
REMARK  status: ('A' for Active; 'I' for Inactive)
REMARK    1  A    between atoms: C7_7  and  C11_11 
ROOT
HETATM    1  C1  UNL     1     -33.505   5.574   2.661  1.00 20.00    -0.023 C 
HETATM    2  C2  UNL     1     -32.947   6.272   1.659  1.00 20.00     0.007 C 
HETATM    3  C3  UNL     1     -34.263   8.291   2.332  1.00 20.00     0.050 C 
HETATM    4  C4  UNL     1     -32.562   8.274   3.927  1.00 20.00     0.174 C 
HETATM    5  C5  UNL     1     -34.153   6.270   3.841  1.00 20.00     0.010 C 
HETATM    6  C6  UNL     1     -34.019   7.821   3.758  1.00 20.00     0.020 C 
HETATM    7  C7  UNL     1     -32.971   7.784   1.689  1.00 20.00     0.082 C 
HETATM    8  C8  UNL     1     -35.622   5.852   3.942  1.00 20.00     0.015 C 
HETATM    9  O12 UNL     1     -31.944   8.189   2.623  1.00 20.00    -0.375 OA
ENDROOT
BRANCH   7  10
HETATM   10  C11 UNL     1     -32.707   8.401   0.326  1.00 20.00     0.016 C 
HETATM   11  C9  UNL     1     -32.775   9.927   0.397  1.00 20.00     0.013 C 
HETATM   12  C10 UNL     1     -31.350   7.955  -0.220  1.00 20.00     0.013 C 
ENDBRANCH   7  10
TORSDOF 1
