REMARK  1 active torsions:
REMARK  status: ('A' for Active; 'I' for Inactive)
REMARK    1  A    between atoms: C7_7  and  N8_8 
ROOT
HETATM    1  C1  UNL     1     -32.963   5.846   1.762  1.00 20.00     0.137 C 
HETATM    2  C2  UNL     1     -33.753   7.576   3.230  1.00 20.00     0.140 C 
HETATM    3  C3  UNL     1     -34.293   6.351   3.949  1.00 20.00     0.068 C 
HETATM    4  C4  UNL     1     -35.683   6.558   4.522  1.00 20.00     0.023 C 
HETATM    5  N8  UNL     1     -32.782   7.137   2.240  1.00 20.00    -0.361 N 
HETATM    6  S9  UNL     1     -32.135   5.058   0.544  1.00 20.00    -0.053 SA
HETATM    7  S10 UNL     1     -34.277   5.076   2.658  1.00 20.00    -0.095 SA
ENDROOT
BRANCH   5   8
HETATM    8  C7  UNL     1     -31.848   8.128   1.719  1.00 20.00     0.077 C 
HETATM    9  C5  UNL     1     -30.860   8.506   2.813  1.00 20.00     0.032 C 
HETATM   10  C6  UNL     1     -32.633   9.335   1.227  1.00 20.00     0.032 C 
ENDBRANCH   5   8
TORSDOF 1
