REMARK  3 active torsions:
REMARK  status: ('A' for Active; 'I' for Inactive)
REMARK    1  A    between atoms: C1_1  and  C7_7 
REMARK    2  A    between atoms: C1_1  and  N9_9 
REMARK    3  A    between atoms: C7_7  and  C8_8 
ROOT
HETATM    1  C1  UNL     1     -32.938   6.519   1.834  1.00 20.00     0.075 C 
HETATM    2  S10 UNL     1     -31.949   5.312   1.161  1.00 20.00    -0.066 SA
ENDROOT
BRANCH   1   3
HETATM    3  C7  UNL     1     -33.210   7.760   0.957  1.00 20.00     0.077 C 
BRANCH   3   4
HETATM    4  C8  UNL     1     -31.985   8.657   0.610  1.00 20.00    -0.045 C 
HETATM    5  C2  UNL     1     -32.512   9.900  -0.140  1.00 20.00     0.015 C 
HETATM    6  C3  UNL     1     -30.967   7.952  -0.298  1.00 20.00     0.015 C 
HETATM    7  C4  UNL     1     -31.260   9.141   1.878  1.00 20.00     0.015 C 
ENDBRANCH   3   4
ENDBRANCH   1   3
BRANCH   1   8
HETATM    8  N9  UNL     1     -33.492   6.458   3.119  1.00 20.00    -0.384 N 
HETATM    9  C5  UNL     1     -33.766   7.627   3.956  1.00 20.00     0.149 C 
HETATM   10  C6  UNL     1     -33.716   5.187   3.814  1.00 20.00     0.149 C 
ENDBRANCH   1   8
TORSDOF 3
