REMARK  1 active torsions:
REMARK  status: ('A' for Active; 'I' for Inactive)
REMARK    1  A    between atoms: C9_9  and  N10_10 
ROOT
HETATM    1  C1  UNL     1     -35.199   4.742   4.769  1.00 20.00     0.004 A 
HETATM    2  C2  UNL     1     -35.475   5.988   4.369  1.00 20.00     0.042 A 
HETATM    3  C3  UNL     1     -34.112   4.006   4.193  1.00 20.00     0.017 A 
HETATM    4  C4  UNL     1     -33.352   4.572   3.250  1.00 20.00     0.093 A 
HETATM    5  C5  UNL     1     -34.645   6.645   3.301  1.00 20.00     0.103 A 
HETATM    6  N10 UNL     1     -33.567   5.871   2.784  1.00 20.00    -0.339 N 
HETATM    7  S11 UNL     1     -35.027   8.212   2.786  1.00 20.00    -0.060 SA
ENDROOT
BRANCH   6   8
HETATM    8  C9  UNL     1     -32.673   6.365   1.753  1.00 20.00     0.027 C 
HETATM    9  C6  UNL     1     -31.650   5.278   1.406  1.00 20.00     0.038 C 
HETATM   10  C7  UNL     1     -33.492   6.723   0.509  1.00 20.00     0.038 C 
HETATM   11  C8  UNL     1     -31.943   7.610   2.270  1.00 20.00     0.038 C 
ENDBRANCH   6   8
TORSDOF 1
