REMARK  1 active torsions:
REMARK  status: ('A' for Active; 'I' for Inactive)
REMARK    1  A    between atoms: C7_7  and  C10_10 
ROOT
HETATM    1  C1  UNL     1     -33.070   9.736   0.900  1.00 20.00    -0.004 C 
HETATM    2  C2  UNL     1     -33.631   9.881   2.223  1.00 20.00    -0.004 C 
HETATM    3  C3  UNL     1     -32.200   8.807   0.479  1.00 20.00    -0.019 C 
HETATM    4  C4  UNL     1     -33.743   8.981   3.212  1.00 20.00    -0.014 C 
HETATM    5  C5  UNL     1     -32.861   6.977   1.936  1.00 20.00     0.138 C 
HETATM    6  C6  UNL     1     -31.683   7.664   1.284  1.00 20.00     0.106 C 
HETATM    7  C7  UNL     1     -33.324   7.535   3.280  1.00 20.00     0.081 C 
HETATM    8  O11 UNL     1     -33.425   6.035   1.377  1.00 20.00    -0.297 OA
ENDROOT
BRANCH   7   9
HETATM    9  C10 UNL     1     -34.463   6.686   3.849  1.00 20.00    -0.008 C 
HETATM   10  C8  UNL     1     -35.713   6.822   2.985  1.00 20.00     0.010 C 
HETATM   11  C9  UNL     1     -34.036   5.225   3.955  1.00 20.00     0.010 C 
ENDBRANCH   7   9
TORSDOF 1
