REMARK  2 active torsions:
REMARK  status: ('A' for Active; 'I' for Inactive)
REMARK    1  A    between atoms: C2_2  and  C5_5 
REMARK    2  A    between atoms: C3_3  and  C6_6 
ROOT
HETATM    1  C1  UNL     1     -34.009   6.964   3.402  1.00 20.00     0.204 C 
HETATM    2  C2  UNL     1     -33.315   6.138   2.345  1.00 20.00     0.162 C 
HETATM    3  C3  UNL     1     -34.222   4.760   3.887  1.00 20.00     0.260 C 
HETATM    4  O7  UNL     1     -34.884   6.025   4.029  1.00 20.00    -0.359 OA
HETATM    5  O8  UNL     1     -33.093   4.894   3.013  1.00 20.00    -0.353 OA
ENDROOT
BRANCH   2   6
HETATM    6  C5  UNL     1     -32.007   6.727   1.865  1.00 20.00     0.148 C 
HETATM    7 CL9  UNL     1     -32.271   8.332   1.150  1.00 20.00    -0.128 Cl
ENDBRANCH   2   6
BRANCH   3   8
HETATM    8  C6  UNL     1     -33.753   4.268   5.242  1.00 20.00     0.056 C 
HETATM    9  C4  UNL     1     -33.065   2.941   5.151  1.00 20.00     0.010 C 
ENDBRANCH   3   8
TORSDOF 2
