REMARK  3 active torsions:
REMARK  status: ('A' for Active; 'I' for Inactive)
REMARK    1  A    between atoms: C1_1  and  C5_5 
REMARK    2  A    between atoms: C2_2  and  C6_6 
REMARK    3  A    between atoms: C6_6  and  O7_7 
ROOT
HETATM    1  C3  UNL     1     -31.449   6.991   1.106  1.00 20.00     0.060 C 
HETATM    2  C4  UNL     1     -31.188   8.632   2.990  1.00 20.00     0.060 C 
HETATM    3  C6  UNL     1     -32.170   7.991   2.011  1.00 20.00     0.114 C 
ENDROOT
BRANCH   3   4
HETATM    4  C2  UNL     1     -33.265   7.332   2.743  1.00 20.00    -0.068 C 
HETATM    5  C1  UNL     1     -34.157   6.792   3.338  1.00 20.00    -0.088 C 
BRANCH   5   6
HETATM    6  C5  UNL     1     -35.245   6.139   4.062  1.00 20.00     0.208 C 
HETATM    7 CL8  UNL     1     -34.814   4.440   4.339  1.00 20.00    -0.117 Cl
ENDBRANCH   5   6
ENDBRANCH   3   4
BRANCH   3   8
HETATM    8  O7  UNL     1     -32.704   9.036   1.197  1.00 20.00    -0.378 OA
HETATM    9  H17 UNL     1     -31.951   9.437   0.738  1.00 20.00     0.211 HD
ENDBRANCH   3   8
TORSDOF 3
