REMARK  3 active torsions:
REMARK  status: ('A' for Active; 'I' for Inactive)
REMARK    1  A    between atoms: C1_1  and  C4_4 
REMARK    2  A    between atoms: C4_4  and  C5_5 
REMARK    3  A    between atoms: C5_5  and  C6_6 
ROOT
HETATM    1  C5  UNL     1     -33.675   7.329   2.542  1.00 20.00     0.035 C 
ENDROOT
BRANCH   1   2
HETATM    2  C4  UNL     1     -33.626   6.248   3.625  1.00 20.00     0.115 C 
BRANCH   2   3
HETATM    3  C1  UNL     1     -34.992   5.685   4.038  1.00 20.00     0.172 C 
HETATM    4  O7  UNL     1     -35.971   6.479   3.990  1.00 20.00    -0.648 OA
HETATM    5  O8  UNL     1     -34.964   4.469   4.386  1.00 20.00    -0.648 OA
ENDBRANCH   2   3
ENDBRANCH   1   2
BRANCH   1   6
HETATM    6  C6  UNL     1     -32.317   7.967   2.165  1.00 20.00     0.030 C 
HETATM    7  C2  UNL     1     -31.669   8.558   3.425  1.00 20.00     0.032 C 
HETATM    8  C3  UNL     1     -31.358   6.958   1.525  1.00 20.00     0.032 C 
HETATM    9 CL9  UNL     1     -32.575   9.318   1.003  1.00 20.00    -0.120 Cl
ENDBRANCH   1   6
TORSDOF 3
