REMARK  1 active torsions:
REMARK  status: ('A' for Active; 'I' for Inactive)
REMARK    1  A    between atoms: C5_5  and  C10_10 
ROOT
HETATM    1  C6  UNL     1     -32.438   9.280   0.557  1.00 20.00     0.005 C 
HETATM    2  C7  UNL     1     -32.356   9.441   2.082  1.00 20.00     0.005 C 
HETATM    3  C8  UNL     1     -33.550   7.041   0.804  1.00 20.00     0.014 C 
HETATM    4  C9  UNL     1     -31.307   7.403   1.488  1.00 20.00     0.010 C 
HETATM    5  C10 UNL     1     -33.570   7.268   2.335  1.00 20.00     0.023 C 
HETATM    6  C11 UNL     1     -32.267   7.764   0.358  1.00 20.00    -0.013 C 
HETATM    7  C12 UNL     1     -32.216   7.985   2.576  1.00 20.00    -0.006 C 
ENDROOT
BRANCH   5   8
HETATM    8  C5  UNL     1     -33.816   5.980   3.103  1.00 20.00    -0.051 A 
HETATM    9  C1  UNL     1     -34.939   5.854   3.913  1.00 20.00     0.026 A 
HETATM   10  C3  UNL     1     -35.119   4.660   4.592  1.00 20.00     0.116 A 
HETATM   11  N13 UNL     1     -34.269   3.611   4.516  1.00 20.00    -0.273 NA
HETATM   12  C4  UNL     1     -33.188   3.771   3.719  1.00 20.00     0.116 A 
HETATM   13  C2  UNL     1     -32.919   4.923   2.999  1.00 20.00     0.026 A 
ENDBRANCH   5   8
TORSDOF 1
