REMARK  4 active torsions:
REMARK  status: ('A' for Active; 'I' for Inactive)
REMARK    1  A    between atoms: C1_1  and  C5_5 
REMARK       I    between atoms: C1_1  and  N9_9 
REMARK    2  A    between atoms: C6_6  and  C8_8 
REMARK    3  A    between atoms: C7_7  and  N9_9 
REMARK    4  A    between atoms: C8_8  and  N9_9 
ROOT
HETATM    1  C1  UNL     1     -33.727   6.878   3.341  1.00 20.00     0.219 C 
HETATM    2  N9  UNL     1     -32.917   6.821   2.202  1.00 20.00    -0.353 N 
HETATM    3  O10 UNL     1     -33.567   7.699   4.248  1.00 20.00    -0.273 OA
ENDROOT
BRANCH   2   4
HETATM    4  C7  UNL     1     -32.660   5.576   1.488  1.00 20.00     0.121 C 
HETATM    5  C4  UNL     1     -31.453   4.887   2.026  1.00 20.00     0.026 C 
ENDBRANCH   2   4
BRANCH   2   6
HETATM    6  C8  UNL     1     -32.268   8.004   1.642  1.00 20.00     0.125 C 
BRANCH   6   7
HETATM    7  C6  UNL     1     -33.138   8.708   0.607  1.00 20.00     0.015 C 
HETATM    8  C3  UNL     1     -32.460   9.930   0.003  1.00 20.00     0.006 C 
ENDBRANCH   6   7
ENDBRANCH   2   6
BRANCH   1   9
HETATM    9  C5  UNL     1     -34.848   5.852   3.420  1.00 20.00     0.098 C 
HETATM   10  C2  UNL     1     -34.415   4.560   4.093  1.00 20.00     0.014 C 
ENDBRANCH   1   9
TORSDOF 4
