REMARK  1 active torsions:
REMARK  status: ('A' for Active; 'I' for Inactive)
REMARK    1  A    between atoms: C2_2  and  C7_7 
ROOT
HETATM    1  C3  UNL     1     -33.183   8.736   2.982  1.00 20.00     0.034 C 
HETATM    2  C4  UNL     1     -32.855   6.756   1.479  1.00 20.00     0.034 C 
HETATM    3  C5  UNL     1     -33.699   7.763   4.036  1.00 20.00     0.168 C 
HETATM    4  C6  UNL     1     -33.389   5.892   2.615  1.00 20.00     0.168 C 
HETATM    5  C7  UNL     1     -32.225   8.028   2.032  1.00 20.00     0.011 C 
HETATM    6  O8  UNL     1     -34.309   6.628   3.421  1.00 20.00    -0.391 OA
ENDROOT
BRANCH   5   7
HETATM    7  C2  UNL     1     -31.935   8.959   0.870  1.00 20.00    -0.032 C 
HETATM    8  C1  UNL     1     -32.869   9.434   0.041  1.00 20.00     0.007 C 
ENDBRANCH   5   7
TORSDOF 1
