REMARK  3 active torsions:
REMARK  status: ('A' for Active; 'I' for Inactive)
REMARK    1  A    between atoms: C1_1  and  C3_3 
REMARK    2  A    between atoms: C2_2  and  C3_3 
REMARK    3  A    between atoms: C2_2  and  S6_6 
ROOT
HETATM    1  C3  UNL     1     -33.333   6.391   2.139  1.00 20.00     0.192 C 
HETATM    2 CL7  UNL     1     -31.950   5.354   1.645  1.00 20.00    -0.113 Cl
ENDROOT
BRANCH   1   3
HETATM    3  C1  UNL     1     -33.938   5.690   3.366  1.00 20.00     0.192 C 
HETATM    4  O4  UNL     1     -34.596   6.450   4.134  1.00 20.00    -0.647 OA
HETATM    5  O5  UNL     1     -33.711   4.452   3.468  1.00 20.00    -0.647 OA
ENDBRANCH   1   3
BRANCH   1   6
HETATM    6  C2  UNL     1     -32.820   7.812   2.342  1.00 20.00     0.102 C 
BRANCH   6   7
HETATM    7  S6  UNL     1     -32.165   8.505   0.791  1.00 20.00    -0.180 SA
HETATM    8  H11 UNL     1     -31.822   9.693   1.306  1.00 20.00     0.101 HD
ENDBRANCH   6   7
ENDBRANCH   1   6
TORSDOF 3
