REMARK  0 active torsions:
REMARK  status: ('A' for Active; 'I' for Inactive)
ROOT
HETATM    1  C1  UNL     1     -33.685   4.191   3.892  1.00 20.00     0.066 C 
HETATM    2  C2  UNL     1     -33.708   7.779   4.455  1.00 20.00     0.034 C 
HETATM    3  C3  UNL     1     -32.773   7.036   3.500  1.00 20.00     0.036 C 
HETATM    4  C4  UNL     1     -35.430   5.964   4.222  1.00 20.00     0.053 C 
HETATM    5  C5  UNL     1     -34.534   5.192   3.243  1.00 20.00     0.124 C 
HETATM    6  C6  UNL     1     -35.082   7.418   3.897  1.00 20.00     0.123 C 
HETATM    7  C7  UNL     1     -33.759   6.330   2.567  1.00 20.00     0.139 C 
HETATM    8  N8  UNL     1     -33.013   3.397   4.406  1.00 20.00    -0.197 NA
HETATM    9  O9  UNL     1     -34.800   7.337   2.480  1.00 20.00    -0.379 OA
ENDROOT
TORSDOF 0
