REMARK  0 active torsions:
REMARK  status: ('A' for Active; 'I' for Inactive)
ROOT
HETATM    1  C1  UNL     1     -32.015   7.286   1.837  1.00 20.00     0.148 A 
HETATM    2  C2  UNL     1     -33.129   5.234   2.198  1.00 20.00     0.148 A 
HETATM    3  C3  UNL     1     -32.614   7.946   2.834  1.00 20.00     0.074 A 
HETATM    4  C4  UNL     1     -33.859   5.654   3.237  1.00 20.00     0.074 A 
HETATM    5  O5  UNL     1     -32.224   5.977   1.483  1.00 20.00    -0.334 OA
HETATM    6  S6  UNL     1     -33.793   7.253   3.888  1.00 20.00    -0.110 SA
ENDROOT
TORSDOF 0
