REMARK  1 active torsions:
REMARK  status: ('A' for Active; 'I' for Inactive)
REMARK    1  A    between atoms: C1_1  and  C6_6 
ROOT
HETATM    1  C2  UNL     1     -32.981   7.959   0.493  1.00 20.00     0.005 C 
HETATM    2  C3  UNL     1     -33.820   6.741   0.905  1.00 20.00     0.006 C 
HETATM    3  C4  UNL     1     -32.225   8.271   2.858  1.00 20.00     0.016 C 
HETATM    4  C5  UNL     1     -31.578   6.368   1.575  1.00 20.00     0.010 C 
HETATM    5  C6  UNL     1     -33.042   7.052   3.307  1.00 20.00     0.051 C 
HETATM    6  C7  UNL     1     -31.772   7.878   1.439  1.00 20.00    -0.013 C 
HETATM    7  C8  UNL     1     -33.009   6.138   2.068  1.00 20.00    -0.003 C 
ENDROOT
BRANCH   5   8
HETATM    8  C1  UNL     1     -34.424   7.399   3.765  1.00 20.00     0.236 C 
HETATM    9  O9  UNL     1     -35.385   6.646   3.645  1.00 20.00    -0.306 OA
ENDBRANCH   5   8
TORSDOF 1
