REMARK  1 active torsions:
REMARK  status: ('A' for Active; 'I' for Inactive)
REMARK    1  A    between atoms: C1_1  and  C5_5 
ROOT
HETATM    1  C2  UNL     1     -32.980   4.742   3.361  1.00 20.00     0.006 C 
HETATM    2  C3  UNL     1     -32.659   5.846   4.384  1.00 20.00     0.011 C 
HETATM    3  C4  UNL     1     -32.762   6.368   1.503  1.00 20.00     0.017 C 
HETATM    4  C5  UNL     1     -32.384   7.460   2.527  1.00 20.00     0.056 C 
HETATM    5  C6  UNL     1     -33.780   5.498   2.279  1.00 20.00    -0.005 C 
HETATM    6  C7  UNL     1     -33.304   7.115   3.743  1.00 20.00    -0.027 C 
HETATM    7  C8  UNL     1     -34.598   6.533   3.090  1.00 20.00    -0.036 C 
HETATM    8  C9  UNL     1     -33.485   8.228   4.760  1.00 20.00     0.016 C 
HETATM    9  C10 UNL     1     -35.602   5.907   4.083  1.00 20.00     0.016 C 
HETATM   10  C11 UNL     1     -35.428   7.491   2.215  1.00 20.00     0.016 C 
ENDROOT
BRANCH   4  11
HETATM   11  C1  UNL     1     -32.512   8.840   1.955  1.00 20.00     0.236 C 
HETATM   12  O12 UNL     1     -32.368   9.094   0.764  1.00 20.00    -0.306 OA
ENDBRANCH   4  11
TORSDOF 1
