REMARK  2 active torsions:
REMARK  status: ('A' for Active; 'I' for Inactive)
REMARK    1  A    between atoms: C6_6  and  C9_9 
REMARK    2  A    between atoms: C6_6  and  C10_10 
ROOT
HETATM    1  C1  UNL     1     -33.284   5.448   2.343  1.00 20.00     0.047 C 
HETATM    2  C2  UNL     1     -32.559   6.289   1.597  1.00 20.00    -0.014 C 
HETATM    3  C3  UNL     1     -34.190   5.969   3.394  1.00 20.00     0.149 C 
HETATM    4  C4  UNL     1     -34.211   7.457   3.657  1.00 20.00     0.084 C 
HETATM    5  C5  UNL     1     -33.923   8.244   2.385  1.00 20.00     0.021 C 
HETATM    6  C6  UNL     1     -32.619   7.799   1.686  1.00 20.00    -0.023 C 
HETATM    7  O11 UNL     1     -34.855   5.185   4.069  1.00 20.00    -0.293 OA
ENDROOT
BRANCH   6   8
HETATM    8  C9  UNL     1     -31.386   8.302   2.456  1.00 20.00     0.009 C 
HETATM    9  C7  UNL     1     -30.123   7.910   1.769  1.00 20.00     0.006 C 
ENDBRANCH   6   8
BRANCH   6  10
HETATM   10  C10 UNL     1     -32.595   8.398   0.268  1.00 20.00     0.009 C 
HETATM   11  C8  UNL     1     -32.653   9.885   0.309  1.00 20.00     0.006 C 
ENDBRANCH   6  10
TORSDOF 2
