REMARK  2 active torsions:
REMARK  status: ('A' for Active; 'I' for Inactive)
REMARK    1  A    between atoms: C1_1  and  C5_5 
REMARK    2  A    between atoms: C5_5  and  C6_6 
ROOT
HETATM    1  C2  UNL     1     -32.919   5.717   1.880  1.00 20.00     0.019 C 
HETATM    2  C5  UNL     1     -33.308   7.146   2.264  1.00 20.00     0.071 C 
ENDROOT
BRANCH   2   3
HETATM    3  C1  UNL     1     -33.712   7.124   3.739  1.00 20.00     0.223 C 
HETATM    4  O7  UNL     1     -33.164   7.839   4.574  1.00 20.00    -0.279 OA
HETATM    5 CL8  UNL     1     -34.981   5.978   4.070  1.00 20.00    -0.043 Cl
ENDBRANCH   2   3
BRANCH   2   6
HETATM    6  C6  UNL     1     -32.174   8.176   2.028  1.00 20.00    -0.011 C 
HETATM    7  C3  UNL     1     -31.397   7.900   0.736  1.00 20.00     0.010 C 
HETATM    8  C4  UNL     1     -32.731   9.605   1.976  1.00 20.00     0.010 C 
ENDBRANCH   2   6
TORSDOF 2
