REMARK  0 active torsions:
REMARK  status: ('A' for Active; 'I' for Inactive)
ROOT
HETATM    1  C1  UNL     1     -32.204   5.474   2.302  1.00 20.00     0.017 A 
HETATM    2  C2  UNL     1     -31.688   6.535   1.559  1.00 20.00     0.025 A 
HETATM    3  C3  UNL     1     -33.517   7.979   2.272  1.00 20.00     0.032 A 
HETATM    4  C4  UNL     1     -33.370   5.703   3.010  1.00 20.00     0.016 A 
HETATM    5  C5  UNL     1     -34.035   6.923   3.007  1.00 20.00    -0.038 A 
HETATM    6  C6  UNL     1     -32.339   7.780   1.544  1.00 20.00     0.034 A 
HETATM    7  C7  UNL     1     -34.104   4.782   3.862  1.00 20.00     0.160 A 
HETATM    8  C8  UNL     1     -35.298   5.488   4.458  1.00 20.00     0.093 A 
HETATM    9  C9  UNL     1     -35.276   6.913   3.854  1.00 20.00     0.023 A 
HETATM   10  C10 UNL     1     -36.536   7.207   3.047  1.00 20.00     0.015 C 
HETATM   11  O11 UNL     1     -33.780   3.625   4.060  1.00 20.00    -0.292 OA
HETATM   12 CL12 UNL     1     -31.678   9.075   0.621  1.00 20.00    -0.084 Cl
ENDROOT
TORSDOF 0
