REMARK  4 active torsions:
REMARK  status: ('A' for Active; 'I' for Inactive)
REMARK    1  A    between atoms: C2_2  and  C7_7 
REMARK    2  A    between atoms: C5_5  and  C6_6 
REMARK    3  A    between atoms: C6_6  and  C7_7 
REMARK    4  A    between atoms: C7_7  and  O8_8 
ROOT
HETATM    1  C7  UNL     1     -32.395   8.456   1.775  1.00 20.00     0.146 C 
ENDROOT
BRANCH   1   2
HETATM    2  C2  UNL     1     -32.522   9.373   0.578  1.00 20.00    -0.065 C 
HETATM    3  C1  UNL     1     -32.667  10.700   0.733  1.00 20.00     0.016 C 
HETATM    4  C3  UNL     1     -32.494   8.755  -0.792  1.00 20.00     0.045 C 
ENDBRANCH   1   2
BRANCH   1   5
HETATM    5  C6  UNL     1     -33.722   7.845   2.255  1.00 20.00     0.036 C 
BRANCH   5   6
HETATM    6  C5  UNL     1     -33.610   6.859   3.421  1.00 20.00    -0.002 C 
HETATM    7  C4  UNL     1     -34.940   6.235   3.814  1.00 20.00     0.005 C 
ENDBRANCH   5   6
ENDBRANCH   1   5
BRANCH   1   8
HETATM    8  O8  UNL     1     -31.509   7.389   1.426  1.00 20.00    -0.391 OA
HETATM    9  H22 UNL     1     -30.663   7.802   1.200  1.00 20.00     0.210 HD
ENDBRANCH   1   8
TORSDOF 4
