REMARK  3 active torsions:
REMARK  status: ('A' for Active; 'I' for Inactive)
REMARK    1  A    between atoms: C1_1  and  C2_2 
REMARK    2  A    between atoms: C1_1  and  O10_10 
REMARK    3  A    between atoms: C3_3  and  C7_7 
ROOT
HETATM    1  C2  UNL     1     -33.421   7.739   2.208  1.00 20.00     0.256 A 
HETATM    2  C3  UNL     1     -32.275   8.439   1.505  1.00 20.00     0.093 A 
HETATM    3  C4  UNL     1     -31.077   7.677   1.032  1.00 20.00     0.049 C 
HETATM    4  O9  UNL     1     -32.415   8.468   2.931  1.00 20.00    -0.359 OA
ENDROOT
BRANCH   1   5
HETATM    5  C1  UNL     1     -33.402   6.300   2.469  1.00 20.00     0.290 C 
HETATM    6  O8  UNL     1     -32.906   5.473   1.716  1.00 20.00    -0.262 OA
BRANCH   5   7
HETATM    7  O10 UNL     1     -34.015   6.045   3.661  1.00 20.00    -0.324 OA
HETATM    8  C6  UNL     1     -34.067   4.667   4.042  1.00 20.00     0.213 C 
ENDBRANCH   5   7
ENDBRANCH   1   5
BRANCH   2   9
HETATM    9  C7  UNL     1     -32.532   9.758   0.847  1.00 20.00     0.036 C 
HETATM   10  C5  UNL     1     -33.085   9.617  -0.546  1.00 20.00     0.008 C 
ENDBRANCH   2   9
TORSDOF 3
