REMARK  1 active torsions:
REMARK  status: ('A' for Active; 'I' for Inactive)
REMARK    1  A    between atoms: C3_3  and  C5_5 
ROOT
HETATM    1  C1  UNL     1     -31.589   8.117   2.138  1.00 20.00    -0.015 C 
HETATM    2  C2  UNL     1     -31.239   8.761   1.021  1.00 20.00    -0.021 C 
HETATM    3  C4  UNL     1     -33.606   8.592   0.990  1.00 20.00     0.032 C 
HETATM    4  C5  UNL     1     -33.065   8.110   2.338  1.00 20.00     0.110 C 
HETATM    5  C6  UNL     1     -32.429   9.300   0.277  1.00 20.00    -0.029 C 
HETATM    6  C7  UNL     1     -32.512  10.823   0.438  1.00 20.00     0.019 C 
HETATM    7  C8  UNL     1     -32.378   8.929  -1.206  1.00 20.00     0.019 C 
ENDROOT
BRANCH   4   8
HETATM    8  C3  UNL     1     -33.500   6.689   2.609  1.00 20.00     0.180 C 
HETATM    9  O9  UNL     1     -33.188   5.851   1.718  1.00 20.00    -0.647 OA
HETATM   10  O10 UNL     1     -34.123   6.523   3.695  1.00 20.00    -0.647 OA
ENDBRANCH   4   8
TORSDOF 1
