REMARK  2 active torsions:
REMARK  status: ('A' for Active; 'I' for Inactive)
REMARK    1  A    between atoms: C2_2  and  C6_6 
REMARK    2  A    between atoms: C6_6  and  N7_7 
ROOT
HETATM    1  C3  UNL     1     -31.977   9.077   0.631  1.00 20.00     0.060 C 
HETATM    2  C4  UNL     1     -31.471   7.681   1.042  1.00 20.00     0.274 C 
HETATM    3  C5  UNL     1     -33.322   8.605   1.216  1.00 20.00     0.274 C 
HETATM    4  N7  UNL     1     -32.546   7.668   2.069  1.00 20.00     0.093 N 
ENDROOT
BRANCH   4   5
HETATM    5  C6  UNL     1     -33.194   6.362   2.118  1.00 20.00     0.317 C 
BRANCH   5   6
HETATM    6  C2  UNL     1     -33.927   6.127   3.409  1.00 20.00     0.007 C 
HETATM    7  C1  UNL     1     -34.134   4.907   3.923  1.00 20.00     0.029 C 
HETATM    8 BR8  UNL     1     -34.485   7.670   4.315  1.00 20.00    -0.055 Br
ENDBRANCH   5   6
ENDBRANCH   4   5
TORSDOF 2
