REMARK  0 active torsions:
REMARK  status: ('A' for Active; 'I' for Inactive)
ROOT
HETATM    1  C1  UNL     1     -32.417   8.786   0.694  1.00 20.00     0.069 C 
HETATM    2  C2  UNL     1     -34.661   6.716   4.354  1.00 20.00     0.000 C 
HETATM    3  C3  UNL     1     -35.053   5.977   3.080  1.00 20.00     0.000 C 
HETATM    4  C4  UNL     1     -33.418   7.595   4.289  1.00 20.00     0.002 C 
HETATM    5  C5  UNL     1     -33.885   5.495   2.227  1.00 20.00     0.002 C 
HETATM    6  C6  UNL     1     -33.277   8.437   3.018  1.00 20.00     0.024 C 
HETATM    7  C7  UNL     1     -33.402   6.558   1.236  1.00 20.00     0.024 C 
HETATM    8  C8  UNL     1     -32.593   7.739   1.817  1.00 20.00     0.045 C 
HETATM    9  C9  UNL     1     -31.237   7.273   2.198  1.00 20.00     0.031 C 
HETATM   10  N10 UNL     1     -32.285   9.572  -0.149  1.00 20.00    -0.196 NA
ENDROOT
TORSDOF 0
