REMARK  0 active torsions:
REMARK  status: ('A' for Active; 'I' for Inactive)
ROOT
HETATM    1  C1  UNL     1     -33.542   6.100   2.561  1.00 20.00     0.080 C 
HETATM    2  C2  UNL     1     -35.847   6.612   3.281  1.00 20.00     0.043 C 
HETATM    3  C3  UNL     1     -33.898   7.020   4.824  1.00 20.00     0.043 C 
HETATM    4  C4  UNL     1     -34.460   6.139   3.710  1.00 20.00     0.099 C 
HETATM    5  N5  UNL     1     -32.819   6.072   1.654  1.00 20.00    -0.196 NA
HETATM    6 BR6  UNL     1     -34.646   4.312   4.429  1.00 20.00    -0.070 Br
ENDROOT
TORSDOF 0
