REMARK  2 active torsions:
REMARK  status: ('A' for Active; 'I' for Inactive)
REMARK    1  A    between atoms: C1_1  and  C6_6 
REMARK    2  A    between atoms: C6_6  and  N7_7 
ROOT
HETATM    1  C3  UNL     1     -34.109   5.435   3.819  1.00 20.00     0.060 C 
HETATM    2  C4  UNL     1     -33.025   5.149   2.761  1.00 20.00     0.274 C 
HETATM    3  C5  UNL     1     -33.766   6.915   3.565  1.00 20.00     0.274 C 
HETATM    4  N7  UNL     1     -33.297   6.505   2.216  1.00 20.00     0.091 N 
ENDROOT
BRANCH   4   5
HETATM    5  C6  UNL     1     -32.050   7.182   1.878  1.00 20.00     0.300 C 
BRANCH   5   6
HETATM    6  C1  UNL     1     -32.300   8.552   1.325  1.00 20.00     0.010 C 
HETATM    7  C2  UNL     1     -31.959   8.920   0.085  1.00 20.00     0.053 C 
HETATM    8 BR8  UNL     1     -32.265  10.604  -0.629  1.00 20.00    -0.064 Br
ENDBRANCH   5   6
ENDBRANCH   4   5
TORSDOF 2
