REMARK  0 active torsions:
REMARK  status: ('A' for Active; 'I' for Inactive)
ROOT
HETATM    1  C1  UNL     1     -32.432   8.815   0.697  1.00 20.00     0.064 C 
HETATM    2  C2  UNL     1     -34.172   7.222   3.674  1.00 20.00     0.128 C 
HETATM    3  C3  UNL     1     -33.994   5.759   3.340  1.00 20.00     0.078 C 
HETATM    4  C4  UNL     1     -33.938   8.205   2.548  1.00 20.00     0.097 C 
HETATM    5  C5  UNL     1     -32.665   5.529   2.635  1.00 20.00     0.009 C 
HETATM    6  C6  UNL     1     -32.489   6.460   1.436  1.00 20.00     0.020 C 
HETATM    7  C7  UNL     1     -32.600   7.930   1.862  1.00 20.00     0.100 C 
HETATM    8  N8  UNL     1     -32.301   9.512  -0.221  1.00 20.00    -0.197 NA
HETATM    9  O9  UNL     1     -34.584   7.587   4.774  1.00 20.00    -0.298 OA
ENDROOT
TORSDOF 0
