REMARK  2 active torsions:
REMARK  status: ('A' for Active; 'I' for Inactive)
REMARK    1  A    between atoms: C2_2  and  C3_3 
REMARK    2  A    between atoms: C3_3  and  C4_4 
ROOT
HETATM    1  C3  UNL     1     -33.285   6.309   1.876  1.00 20.00     0.254 C 
HETATM    2  O5  UNL     1     -33.578   5.373   1.137  1.00 20.00    -0.283 OA
ENDROOT
BRANCH   1   3
HETATM    3  C2  UNL     1     -32.143   7.218   1.591  1.00 20.00     0.049 C 
HETATM    4  C1  UNL     1     -32.338   8.529   1.422  1.00 20.00     0.015 C 
ENDBRANCH   1   3
BRANCH   1   5
HETATM    5  C4  UNL     1     -34.063   6.600   3.126  1.00 20.00     0.455 C 
HETATM    6  F6  UNL     1     -33.569   7.674   3.792  1.00 20.00    -0.163 F 
HETATM    7  F7  UNL     1     -35.368   6.864   2.862  1.00 20.00    -0.163 F 
HETATM    8  F8  UNL     1     -34.042   5.557   3.995  1.00 20.00    -0.163 F 
ENDBRANCH   1   5
TORSDOF 2
