REMARK  0 active torsions:
REMARK  status: ('A' for Active; 'I' for Inactive)
ROOT
HETATM    1  C1  UNL     1     -34.396   7.890   2.760  1.00 20.00     0.050 C 
HETATM    2  C2  UNL     1     -33.197   5.828   1.822  1.00 20.00     0.050 C 
HETATM    3  C3  UNL     1     -32.425   8.201   1.093  1.00 20.00     0.207 A 
HETATM    4  C4  UNL     1     -34.561   7.283   4.149  1.00 20.00     0.077 C 
HETATM    5  C5  UNL     1     -33.273   5.065   3.140  1.00 20.00     0.077 C 
HETATM    6  C6  UNL     1     -33.216   7.316   2.028  1.00 20.00     0.084 A 
HETATM    7  O7  UNL     1     -31.952   7.877   2.410  1.00 20.00    -0.375 OA
HETATM    8  S8  UNL     1     -34.784   5.478   4.066  1.00 20.00    -0.169 SA
ENDROOT
TORSDOF 0
