REMARK  2 active torsions:
REMARK  status: ('A' for Active; 'I' for Inactive)
REMARK    1  A    between atoms: C3_3  and  C5_5 
REMARK    2  A    between atoms: C4_4  and  C5_5 
ROOT
HETATM    1  C1  UNL     1     -32.528   9.767   0.829  1.00 20.00     0.012 C 
HETATM    2  C2  UNL     1     -32.236   8.663   1.201  1.00 20.00    -0.117 C 
HETATM    3  C4  UNL     1     -31.875   7.312   1.656  1.00 20.00     0.101 C 
ENDROOT
BRANCH   3   4
HETATM    4  C5  UNL     1     -33.091   6.536   2.157  1.00 20.00     0.108 C 
BRANCH   4   5
HETATM    5  C3  UNL     1     -33.785   7.190   3.343  1.00 20.00     0.219 C 
HETATM    6  O6  UNL     1     -33.191   7.873   4.172  1.00 20.00    -0.280 OA
HETATM    7 CL7  UNL     1     -35.486   6.818   3.374  1.00 20.00    -0.044 Cl
ENDBRANCH   4   5
ENDBRANCH   3   4
TORSDOF 2
