REMARK  0 active torsions:
REMARK  status: ('A' for Active; 'I' for Inactive)
ROOT
HETATM    1  C1  UNL     1     -33.152   6.122   1.127  1.00 20.00    -0.023 C 
HETATM    2  C2  UNL     1     -34.173   5.668   1.869  1.00 20.00    -0.014 C 
HETATM    3  C3  UNL     1     -33.549   7.246   3.753  1.00 20.00     0.144 C 
HETATM    4  C4  UNL     1     -32.069   6.955   1.646  1.00 20.00     0.028 A 
HETATM    5  C5  UNL     1     -32.267   7.500   3.039  1.00 20.00     0.073 A 
HETATM    6  C6  UNL     1     -34.368   6.011   3.331  1.00 20.00     0.031 C 
HETATM    7  C7  UNL     1     -32.208   8.450   1.854  1.00 20.00    -0.029 A 
HETATM    8  C8  UNL     1     -35.857   6.311   3.570  1.00 20.00     0.027 C 
HETATM    9  C9  UNL     1     -33.930   4.827   4.202  1.00 20.00     0.027 C 
HETATM   10  C10 UNL     1     -30.957   9.281   1.703  1.00 20.00     0.016 C 
HETATM   11  C11 UNL     1     -33.453   9.173   1.398  1.00 20.00     0.016 C 
HETATM   12  O12 UNL     1     -33.868   7.983   4.680  1.00 20.00    -0.296 OA
ENDROOT
TORSDOF 0
