REMARK  1 active torsions:
REMARK  status: ('A' for Active; 'I' for Inactive)
REMARK    1  A    between atoms: C3_3  and  C7_7 
ROOT
HETATM    1  C1  UNL     1     -34.820   6.138   3.905  1.00 20.00     0.220 A 
HETATM    2  C2  UNL     1     -33.986   7.422   4.058  1.00 20.00     0.128 A 
HETATM    3  C3  UNL     1     -32.845   6.620   3.386  1.00 20.00     0.100 A 
HETATM    4  N8  UNL     1     -33.779   5.502   3.303  1.00 20.00    -0.355 N 
HETATM    5  O9  UNL     1     -35.942   5.783   4.183  1.00 20.00    -0.274 OA
HETATM    6  H22 UNL     1     -33.707   4.558   2.949  1.00 20.00     0.162 HD
ENDROOT
BRANCH   3   7
HETATM    7  C7  UNL     1     -32.391   7.077   1.993  1.00 20.00    -0.030 C 
HETATM    8  C4  UNL     1     -31.550   5.971   1.340  1.00 20.00     0.016 C 
HETATM    9  C5  UNL     1     -31.546   8.353   2.124  1.00 20.00     0.016 C 
HETATM   10  C6  UNL     1     -33.622   7.366   1.122  1.00 20.00     0.016 C 
ENDBRANCH   3   7
TORSDOF 1
