REMARK  2 active torsions:
REMARK  status: ('A' for Active; 'I' for Inactive)
REMARK    1  A    between atoms: C5_5  and  C6_6 
REMARK    2  A    between atoms: C6_6  and  N7_7 
ROOT
HETATM    1  C1  UNL     1     -32.579   9.750   0.524  1.00 20.00     0.012 C 
HETATM    2  C2  UNL     1     -32.263   8.820   1.213  1.00 20.00    -0.115 C 
HETATM    3  C5  UNL     1     -31.869   7.681   2.058  1.00 20.00     0.128 C 
ENDROOT
BRANCH   3   4
HETATM    4  C6  UNL     1     -33.016   6.679   2.251  1.00 20.00     0.227 C 
HETATM    5  C3  UNL     1     -33.839   6.483   0.977  1.00 20.00     0.043 C 
BRANCH   4   6
HETATM    6  N7  UNL     1     -33.905   7.169   3.308  1.00 20.00     0.084 N 
HETATM    7  C4  UNL     1     -34.669   6.075   3.884  1.00 20.00     0.307 C 
HETATM    8  H18 UNL     1     -33.342   7.610   4.031  1.00 20.00     0.315 HD
ENDBRANCH   4   6
ENDBRANCH   3   4
TORSDOF 2
