REMARK  3 active torsions:
REMARK  status: ('A' for Active; 'I' for Inactive)
REMARK    1  A    between atoms: C2_2  and  C3_3 
REMARK    2  A    between atoms: C3_3  and  C4_4 
REMARK    3  A    between atoms: C3_3  and  O5_5 
ROOT
HETATM    1  C3  UNL     1     -33.557   5.772   2.910  1.00 20.00     0.362 C 
HETATM    2  F8  UNL     1     -34.292   5.173   1.934  1.00 20.00    -0.195 F 
ENDROOT
BRANCH   1   3
HETATM    3  C2  UNL     1     -32.265   6.306   2.309  1.00 20.00     0.429 C 
HETATM    4  F6  UNL     1     -32.456   7.561   1.830  1.00 20.00    -0.208 F 
HETATM    5  F7  UNL     1     -31.897   5.550   1.245  1.00 20.00    -0.208 F 
ENDBRANCH   1   3
BRANCH   1   6
HETATM    6  C4  UNL     1     -34.399   6.889   3.498  1.00 20.00     0.455 C 
HETATM    7  F9  UNL     1     -34.736   7.800   2.559  1.00 20.00    -0.165 F 
HETATM    8  F10 UNL     1     -33.724   7.541   4.471  1.00 20.00    -0.165 F 
HETATM    9  F11 UNL     1     -35.541   6.413   4.038  1.00 20.00    -0.165 F 
ENDBRANCH   1   6
BRANCH   1  10
HETATM   10  O5  UNL     1     -33.337   4.826   3.958  1.00 20.00    -0.345 OA
HETATM   11  C1  UNL     1     -34.441   3.982   4.246  1.00 20.00     0.206 C 
ENDBRANCH   1  10
TORSDOF 3
