REMARK  0 active torsions:
REMARK  status: ('A' for Active; 'I' for Inactive)
ROOT
HETATM    1  C1  UNL     1     -33.276   6.149   2.204  1.00 20.00    -0.032 A 
HETATM    2  C2  UNL     1     -32.935   7.386   2.574  1.00 20.00     0.056 A 
HETATM    3  C3  UNL     1     -34.300   5.713   3.196  1.00 20.00     0.157 A 
HETATM    4  C4  UNL     1     -32.834   5.305   1.068  1.00 20.00     0.048 C 
HETATM    5  C5  UNL     1     -31.959   8.314   1.942  1.00 20.00     0.072 C 
HETATM    6  C6  UNL     1     -33.894   4.502   4.021  1.00 20.00     0.041 C 
HETATM    7  N7  UNL     1     -33.615   7.802   3.694  1.00 20.00    -0.160 NA
HETATM    8  N8  UNL     1     -34.402   6.898   4.092  1.00 20.00    -0.183 NA
ENDROOT
TORSDOF 0
