REMARK  2 active torsions:
REMARK  status: ('A' for Active; 'I' for Inactive)
REMARK    1  A    between atoms: C1_1  and  C7_7 
REMARK    2  A    between atoms: C7_7  and  C10_10 
ROOT
HETATM    1  C2  UNL     1     -31.481   9.684   0.427  1.00 20.00     0.000 C 
HETATM    2  C3  UNL     1     -32.878   9.140   0.152  1.00 20.00     0.001 C 
HETATM    3  C4  UNL     1     -30.589   8.632   1.076  1.00 20.00     0.001 C 
HETATM    4  C5  UNL     1     -33.528   8.582   1.418  1.00 20.00     0.021 C 
HETATM    5  C6  UNL     1     -31.216   8.068   2.352  1.00 20.00     0.021 C 
HETATM    6  C7  UNL     1     -32.644   7.560   2.138  1.00 20.00     0.051 C 
ENDROOT
BRANCH   6   7
HETATM    7  C1  UNL     1     -32.609   6.260   1.337  1.00 20.00     0.182 C 
HETATM    8  O11 UNL     1     -31.907   5.337   1.836  1.00 20.00    -0.647 OA
HETATM    9  O12 UNL     1     -33.290   6.275   0.273  1.00 20.00    -0.647 OA
ENDBRANCH   6   7
BRANCH   6  10
HETATM   10  C10 UNL     1     -33.275   7.121   3.460  1.00 20.00    -0.004 C 
HETATM   11  C8  UNL     1     -33.364   8.300   4.424  1.00 20.00     0.011 C 
HETATM   12  C9  UNL     1     -34.654   6.517   3.216  1.00 20.00     0.011 C 
ENDBRANCH   6  10
TORSDOF 2
