REMARK  0 active torsions:
REMARK  status: ('A' for Active; 'I' for Inactive)
ROOT
HETATM    1  C1  UNL     1     -33.584   7.938   3.542  1.00 20.00    -0.008 C 
HETATM    2  C2  UNL     1     -32.962   7.341   2.532  1.00 20.00    -0.037 C 
HETATM    3  C3  UNL     1     -33.209   5.903   2.352  1.00 20.00     0.044 C 
HETATM    4  C4  UNL     1     -34.857   5.769   3.947  1.00 20.00     0.246 C 
HETATM    5  C5  UNL     1     -34.541   7.193   4.411  1.00 20.00     0.133 C 
HETATM    6  C6  UNL     1     -31.945   7.782   1.544  1.00 20.00     0.040 C 
HETATM    7  C7  UNL     1     -32.309   5.364   1.281  1.00 20.00     0.060 C 
HETATM    8  C8  UNL     1     -31.248   6.465   1.184  1.00 20.00     0.011 C 
HETATM    9  N9  UNL     1     -34.062   5.175   2.984  1.00 20.00    -0.218 NA
HETATM   10  O10 UNL     1     -35.795   5.170   4.477  1.00 20.00    -0.271 OA
ENDROOT
TORSDOF 0
