REMARK  0 active torsions:
REMARK  status: ('A' for Active; 'I' for Inactive)
ROOT
HETATM    1  C1  UNL     1     -33.558   7.110   3.054  1.00 20.00     0.158 C 
HETATM    2  C2  UNL     1     -32.805   6.979   1.964  1.00 20.00     0.277 C 
HETATM    3  F3  UNL     1     -32.257   8.075   1.397  1.00 20.00    -0.172 F 
HETATM    4  F4  UNL     1     -32.583   5.764   1.418  1.00 20.00    -0.172 F 
HETATM    5 CL5  UNL     1     -34.301   5.793   3.856  1.00 20.00    -0.091 Cl
ENDROOT
TORSDOF 0
