REMARK  2 active torsions:
REMARK  status: ('A' for Active; 'I' for Inactive)
REMARK    1  A    between atoms: C4_4  and  C9_9 
REMARK    2  A    between atoms: C7_7  and  C9_9 
ROOT
HETATM    1  C1  UNL     1     -31.930   7.083   0.817  1.00 20.00     0.015 A 
HETATM    2  C2  UNL     1     -32.415   6.037   1.653  1.00 20.00     0.017 A 
HETATM    3  C3  UNL     1     -32.401   8.318   1.206  1.00 20.00    -0.021 A 
HETATM    4  C4  UNL     1     -33.239   6.512   2.650  1.00 20.00    -0.002 A 
HETATM    5  C8  UNL     1     -32.129   9.640   0.601  1.00 20.00     0.056 C 
HETATM    6  S10 UNL     1     -33.424   8.212   2.575  1.00 20.00    -0.099 SA
ENDROOT
BRANCH   4   7
HETATM    7  C9  UNL     1     -33.950   5.733   3.734  1.00 20.00     0.102 C 
HETATM    8 BR11 UNL     1     -35.861   6.161   3.686  1.00 20.00    -0.085 Br
BRANCH   7   9
HETATM    9  C7  UNL     1     -33.752   4.260   3.637  1.00 20.00     0.005 A 
HETATM   10  C5  UNL     1     -32.535   3.617   4.241  1.00 20.00     0.006 A 
HETATM   11  C6  UNL     1     -33.887   3.395   4.860  1.00 20.00     0.006 A 
ENDBRANCH   7   9
ENDBRANCH   4   7
TORSDOF 2
