REMARK  2 active torsions:
REMARK  status: ('A' for Active; 'I' for Inactive)
REMARK    1  A    between atoms: C4_4  and  C10_10 
REMARK    2  A    between atoms: C7_7  and  C10_10 
ROOT
HETATM    1  C1  UNL     1     -34.245   6.636   4.291  1.00 20.00     0.015 A 
HETATM    2  C2  UNL     1     -33.556   7.614   3.516  1.00 20.00     0.017 A 
HETATM    3  C3  UNL     1     -34.136   5.375   3.749  1.00 20.00    -0.021 A 
HETATM    4  C4  UNL     1     -32.947   7.062   2.411  1.00 20.00     0.002 A 
HETATM    5  C8  UNL     1     -34.703   4.105   4.251  1.00 20.00     0.056 C 
HETATM    6  S11 UNL     1     -33.206   5.372   2.311  1.00 20.00    -0.098 SA
ENDROOT
BRANCH   4   7
HETATM    7  C10 UNL     1     -32.117   7.759   1.336  1.00 20.00     0.126 C 
HETATM    8 CL12 UNL     1     -31.400   6.497   0.269  1.00 20.00    -0.119 Cl
BRANCH   7   9
HETATM    9  C7  UNL     1     -32.851   8.779   0.537  1.00 20.00     0.013 A 
HETATM   10  C5  UNL     1     -33.001  10.184   1.058  1.00 20.00     0.011 A 
HETATM   11  C6  UNL     1     -32.101   9.910  -0.118  1.00 20.00    -0.012 A 
HETATM   12  C9  UNL     1     -32.486  10.372  -1.480  1.00 20.00     0.010 C 
ENDBRANCH   7   9
ENDBRANCH   4   7
TORSDOF 2
