REMARK  2 active torsions:
REMARK  status: ('A' for Active; 'I' for Inactive)
REMARK    1  A    between atoms: C3_3  and  C8_8 
REMARK    2  A    between atoms: C7_7  and  C8_8 
ROOT
HETATM    1  C1  UNL     1     -33.446   8.166   3.279  1.00 20.00     0.018 A 
HETATM    2  C2  UNL     1     -34.185   7.227   4.057  1.00 20.00     0.032 A 
HETATM    3  C3  UNL     1     -32.836   7.573   2.195  1.00 20.00     0.003 A 
HETATM    4  C4  UNL     1     -34.111   5.953   3.537  1.00 20.00     0.075 A 
HETATM    5  S9  UNL     1     -33.154   5.892   2.118  1.00 20.00    -0.081 SA
HETATM    6 CL10 UNL     1     -34.840   4.527   4.145  1.00 20.00    -0.076 Cl
ENDROOT
BRANCH   3   7
HETATM    7  C8  UNL     1     -31.962   8.222   1.126  1.00 20.00     0.126 C 
HETATM    8 CL11 UNL     1     -31.270   6.917   0.094  1.00 20.00    -0.119 Cl
BRANCH   7   9
HETATM    9  C7  UNL     1     -32.645   9.253   0.295  1.00 20.00     0.009 A 
HETATM   10  C5  UNL     1     -32.740  10.673   0.778  1.00 20.00     0.007 A 
HETATM   11  C6  UNL     1     -31.844  10.332  -0.380  1.00 20.00     0.007 A 
ENDBRANCH   7   9
ENDBRANCH   3   7
TORSDOF 2
