REMARK  2 active torsions:
REMARK  status: ('A' for Active; 'I' for Inactive)
REMARK    1  A    between atoms: C4_4  and  C10_10 
REMARK    2  A    between atoms: C7_7  and  C10_10 
ROOT
HETATM    1  C1  UNL     1     -34.889   6.903   4.262  1.00 20.00     0.015 A 
HETATM    2  C2  UNL     1     -34.070   7.830   3.555  1.00 20.00     0.017 A 
HETATM    3  C3  UNL     1     -34.549   5.597   3.987  1.00 20.00    -0.021 A 
HETATM    4  C4  UNL     1     -33.136   7.197   2.765  1.00 20.00    -0.002 A 
HETATM    5  C8  UNL     1     -35.156   4.357   4.516  1.00 20.00     0.056 C 
HETATM    6  S11 UNL     1     -33.248   5.492   2.878  1.00 20.00    -0.099 SA
ENDROOT
BRANCH   4   7
HETATM    7  C10 UNL     1     -32.088   7.816   1.867  1.00 20.00     0.102 C 
HETATM    8 BR12 UNL     1     -30.779   8.766   2.974  1.00 20.00    -0.085 Br
BRANCH   7   9
HETATM    9  C7  UNL     1     -32.654   8.725   0.832  1.00 20.00     0.009 A 
HETATM   10  C5  UNL     1     -32.960  10.161   1.172  1.00 20.00     0.011 A 
HETATM   11  C6  UNL     1     -31.811   9.832   0.255  1.00 20.00    -0.013 A 
HETATM   12  C9  UNL     1     -31.894  10.156  -1.196  1.00 20.00     0.010 C 
ENDBRANCH   7   9
ENDBRANCH   4   7
TORSDOF 2
