REMARK  1 active torsions:
REMARK  status: ('A' for Active; 'I' for Inactive)
REMARK    1  A    between atoms: C1_1  and  C2_2 
ROOT
HETATM    1  C1  UNL     1     -33.186   6.139   2.060  1.00 20.00     0.384 C 
HETATM    2  F3  UNL     1     -32.038   5.669   2.618  1.00 20.00    -0.181 F 
HETATM    3  F4  UNL     1     -32.849   7.297   1.431  1.00 20.00    -0.181 F 
HETATM    4 CL6  UNL     1     -33.758   4.971   0.850  1.00 20.00    -0.042 Cl
ENDROOT
BRANCH   1   5
HETATM    5  C2  UNL     1     -34.192   6.442   3.164  1.00 20.00     0.336 C 
HETATM    6  F5  UNL     1     -34.427   5.278   3.835  1.00 20.00    -0.199 F 
HETATM    7 CL7  UNL     1     -35.747   7.012   2.506  1.00 20.00    -0.058 Cl
HETATM    8 CL8  UNL     1     -33.557   7.625   4.335  1.00 20.00    -0.058 Cl
ENDBRANCH   1   5
TORSDOF 1
