REMARK  2 active torsions:
REMARK  status: ('A' for Active; 'I' for Inactive)
REMARK    1  A    between atoms: C3_3  and  C5_5 
REMARK    2  A    between atoms: C5_5  and  S6_6 
ROOT
HETATM    1  C1  UNL     1     -33.281   5.929   1.367  1.00 20.00     0.010 A 
HETATM    2  C2  UNL     1     -32.285   5.587   2.439  1.00 20.00     0.010 A 
HETATM    3  C3  UNL     1     -32.819   6.996   2.331  1.00 20.00    -0.036 A 
HETATM    4  C4  UNL     1     -31.894   8.062   1.811  1.00 20.00     0.016 C 
ENDROOT
BRANCH   3   5
HETATM    5  C5  UNL     1     -33.787   7.466   3.381  1.00 20.00     0.079 C 
BRANCH   5   6
HETATM    6  S6  UNL     1     -34.730   6.070   4.066  1.00 20.00    -0.181 SA
HETATM    7  H16 UNL     1     -35.457   6.801   4.922  1.00 20.00     0.101 HD
ENDBRANCH   5   6
ENDBRANCH   3   5
TORSDOF 2
