REMARK  0 active torsions:
REMARK  status: ('A' for Active; 'I' for Inactive)
ROOT
HETATM    1  C1  UNL     1     -33.048   7.767   3.346  1.00 20.00     0.149 A 
HETATM    2  C2  UNL     1     -33.790   6.646   3.038  1.00 20.00     0.094 A 
HETATM    3  C3  UNL     1     -32.208   7.350   1.363  1.00 20.00     0.145 A 
HETATM    4  N4  UNL     1     -32.140   8.172   2.387  1.00 20.00    -0.244 NA
HETATM    5  S5  UNL     1     -33.342   6.068   1.487  1.00 20.00    -0.049 SA
HETATM    6 CL6  UNL     1     -34.991   5.862   3.963  1.00 20.00    -0.075 Cl
HETATM    7 BR7  UNL     1     -31.104   7.570  -0.180  1.00 20.00    -0.021 Br
ENDROOT
TORSDOF 0
