REMARK  1 active torsions:
REMARK  status: ('A' for Active; 'I' for Inactive)
REMARK    1  A    between atoms: C4_4  and  C7_7 
ROOT
HETATM    1  C1  UNL     1     -32.238   8.895   0.640  1.00 20.00     0.069 C 
HETATM    2  C6  UNL     1     -30.511   8.377   2.332  1.00 20.00     0.031 C 
HETATM    3  C7  UNL     1     -31.540   7.782   1.344  1.00 20.00     0.128 C 
HETATM    4  N8  UNL     1     -32.803   9.751   0.098  1.00 20.00    -0.197 NA
ENDROOT
BRANCH   3   5
HETATM    5  C4  UNL     1     -32.476   6.830   1.980  1.00 20.00     0.001 A 
HETATM    6  C2  UNL     1     -32.644   5.488   1.718  1.00 20.00     0.018 A 
HETATM    7  C3  UNL     1     -33.649   4.904   2.542  1.00 20.00     0.032 A 
HETATM    8  C5  UNL     1     -34.211   5.821   3.403  1.00 20.00     0.075 A 
HETATM    9  S9  UNL     1     -33.527   7.380   3.215  1.00 20.00    -0.081 SA
HETATM   10 CL10 UNL     1     -35.446   5.556   4.561  1.00 20.00    -0.076 Cl
ENDBRANCH   3   5
TORSDOF 1
