REMARK  3 active torsions:
REMARK  status: ('A' for Active; 'I' for Inactive)
REMARK    1  A    between atoms: C4_4  and  C7_7 
REMARK    2  A    between atoms: C6_6  and  N9_9 
REMARK    3  A    between atoms: C7_7  and  N9_9 
ROOT
HETATM    1  C1  UNL     1     -34.175   6.904   3.919  1.00 20.00     0.095 C 
HETATM    2  C7  UNL     1     -33.667   5.959   2.898  1.00 20.00     0.330 C 
HETATM    3  N8  UNL     1     -34.562   7.632   4.736  1.00 20.00    -0.195 NA
ENDROOT
BRANCH   2   4
HETATM    4  C4  UNL     1     -32.898   6.648   1.825  1.00 20.00     0.033 A 
HETATM    5  C2  UNL     1     -33.308   8.017   1.359  1.00 20.00     0.008 A 
HETATM    6  C3  UNL     1     -32.044   7.841   2.153  1.00 20.00     0.008 A 
ENDBRANCH   2   4
BRANCH   2   7
HETATM    7  N9  UNL     1     -32.871   4.941   3.564  1.00 20.00     0.101 N 
HETATM    8  H21 UNL     1     -32.256   4.494   2.884  1.00 20.00     0.317 HD
BRANCH   7   9
HETATM    9  C6  UNL     1     -33.722   3.927   4.176  1.00 20.00     0.267 C 
HETATM   10  C5  UNL     1     -32.907   2.891   4.872  1.00 20.00     0.037 C 
ENDBRANCH   7   9
ENDBRANCH   2   7
TORSDOF 3
