REMARK  3 active torsions:
REMARK  status: ('A' for Active; 'I' for Inactive)
REMARK    1  A    between atoms: C6_6  and  C8_8 
REMARK    2  A    between atoms: C7_7  and  N10_10 
REMARK    3  A    between atoms: C8_8  and  N10_10 
ROOT
HETATM    1  C1  UNL     1     -31.765   6.492   1.501  1.00 20.00     0.095 C 
HETATM    2  C8  UNL     1     -31.779   7.952   1.752  1.00 20.00     0.330 C 
HETATM    3  N9  UNL     1     -31.762   5.345   1.327  1.00 20.00    -0.195 NA
ENDROOT
BRANCH   2   4
HETATM    4  C6  UNL     1     -32.689   8.676   0.821  1.00 20.00     0.033 A 
HETATM    5  C2  UNL     1     -32.762  10.178   0.848  1.00 20.00     0.008 A 
HETATM    6  C3  UNL     1     -32.124   9.477  -0.319  1.00 20.00     0.008 A 
ENDBRANCH   2   4
BRANCH   2   7
HETATM    7  N10 UNL     1     -32.137   8.180   3.142  1.00 20.00     0.106 N 
HETATM    8  H22 UNL     1     -31.835   9.115   3.420  1.00 20.00     0.318 HD
BRANCH   7   9
HETATM    9  C7  UNL     1     -33.577   8.066   3.338  1.00 20.00     0.222 A 
HETATM   10  C4  UNL     1     -34.225   6.713   3.446  1.00 20.00     0.038 A 
HETATM   11  C5  UNL     1     -34.133   7.598   4.655  1.00 20.00     0.038 A 
ENDBRANCH   7   9
ENDBRANCH   2   7
TORSDOF 3
