REMARK  0 active torsions:
REMARK  status: ('A' for Active; 'I' for Inactive)
ROOT
HETATM    1  C1  UNL     1     -32.193   8.901   0.866  1.00 20.00     0.068 C 
HETATM    2  C2  UNL     1     -34.599   6.023   3.384  1.00 20.00     0.009 A 
HETATM    3  C3  UNL     1     -34.925   6.793   4.502  1.00 20.00     0.024 A 
HETATM    4  C4  UNL     1     -33.166   8.389   3.971  1.00 20.00     0.033 A 
HETATM    5  C5  UNL     1     -33.553   6.441   2.580  1.00 20.00    -0.050 A 
HETATM    6  C6  UNL     1     -32.845   7.616   2.865  1.00 20.00    -0.033 A 
HETATM    7  C7  UNL     1     -34.212   7.967   4.794  1.00 20.00     0.034 A 
HETATM    8  C8  UNL     1     -33.048   5.804   1.324  1.00 20.00     0.041 C 
HETATM    9  C9  UNL     1     -31.675   6.482   1.177  1.00 20.00     0.028 C 
HETATM   10  C10 UNL     1     -31.785   7.875   1.833  1.00 20.00     0.126 C 
HETATM   11  N11 UNL     1     -32.515   9.712   0.101  1.00 20.00    -0.197 NA
HETATM   12 CL12 UNL     1     -34.640   8.901   6.177  1.00 20.00    -0.084 Cl
ENDROOT
TORSDOF 0
