REMARK  2 active torsions:
REMARK  status: ('A' for Active; 'I' for Inactive)
REMARK    1  A    between atoms: C5_5  and  N8_8 
REMARK    2  A    between atoms: C7_7  and  N8_8 
ROOT
HETATM    1  C1  UNL     1     -32.062   9.185   0.140  1.00 20.00     0.013 C 
HETATM    2  C2  UNL     1     -32.195   8.547   1.148  1.00 20.00    -0.087 C 
HETATM    3  C7  UNL     1     -32.353   7.771   2.380  1.00 20.00     0.364 C 
ENDROOT
BRANCH   3   4
HETATM    4  N8  UNL     1     -33.504   6.874   2.282  1.00 20.00     0.099 N 
HETATM    5  C6  UNL     1     -33.171   5.702   1.471  1.00 20.00     0.311 C 
BRANCH   4   6
HETATM    6  C5  UNL     1     -33.948   6.464   3.614  1.00 20.00     0.223 A 
HETATM    7  C3  UNL     1     -34.755   7.402   4.468  1.00 20.00     0.038 A 
HETATM    8  C4  UNL     1     -35.400   6.181   3.881  1.00 20.00     0.038 A 
ENDBRANCH   4   6
ENDBRANCH   3   4
TORSDOF 2
