REMARK  1 active torsions:
REMARK  status: ('A' for Active; 'I' for Inactive)
REMARK    1  A    between atoms: C6_6  and  N8_8 
ROOT
HETATM    1  C1  UNL     1     -32.767   9.836  -0.312  1.00 20.00     0.014 C 
HETATM    2  C2  UNL     1     -32.178   9.100   0.432  1.00 20.00    -0.096 C 
HETATM    3  C6  UNL     1     -31.455   8.204   1.339  1.00 20.00     0.243 C 
ENDROOT
BRANCH   3   4
HETATM    4  N8  UNL     1     -32.349   7.334   2.064  1.00 20.00    -0.269 N 
HETATM    5  C4  UNL     1     -33.113   7.674   3.141  1.00 20.00     0.138 A 
HETATM    6  C5  UNL     1     -33.794   6.534   3.494  1.00 20.00     0.070 A 
HETATM    7  C3  UNL     1     -33.366   5.567   2.564  1.00 20.00     0.164 A 
HETATM    8 CL9  UNL     1     -34.899   6.309   4.751  1.00 20.00    -0.081 Cl
HETATM    9  N7  UNL     1     -32.482   6.050   1.687  1.00 20.00    -0.183 NA
ENDBRANCH   3   4
TORSDOF 1
