REMARK  3 active torsions:
REMARK  status: ('A' for Active; 'I' for Inactive)
REMARK    1  A    between atoms: C6_6  and  N11_11 
REMARK    2  A    between atoms: C8_8  and  C9_9 
REMARK    3  A    between atoms: C9_9  and  N11_11 
ROOT
HETATM    1  C1  UNL     1     -34.411   5.112   4.072  1.00 20.00     0.060 C 
HETATM    2  C8  UNL     1     -34.887   6.500   3.973  1.00 20.00     0.153 C 
HETATM    3  N10 UNL     1     -34.037   4.017   4.151  1.00 20.00    -0.197 NA
ENDROOT
BRANCH   2   4
HETATM    4  C9  UNL     1     -33.754   7.471   3.657  1.00 20.00     0.284 C 
BRANCH   4   5
HETATM    5  N11 UNL     1     -33.126   7.139   2.390  1.00 20.00     0.093 N 
HETATM    6  H27 UNL     1     -33.837   6.875   1.714  1.00 20.00     0.316 HD
BRANCH   5   7
HETATM    7  C6  UNL     1     -32.397   8.275   1.873  1.00 20.00     0.154 C 
HETATM    8  C4  UNL     1     -33.330   9.468   1.635  1.00 20.00     0.041 C 
HETATM    9  C2  UNL     1     -32.627  10.319   0.581  1.00 20.00     0.003 C 
HETATM   10  C3  UNL     1     -31.693   9.375  -0.175  1.00 20.00     0.003 C 
HETATM   11  C5  UNL     1     -31.877   7.999   0.458  1.00 20.00     0.041 C 
HETATM   12  C7  UNL     1     -31.260   8.627   2.838  1.00 20.00     0.049 C 
ENDBRANCH   5   7
ENDBRANCH   4   5
ENDBRANCH   2   4
TORSDOF 3
