REMARK  4 active torsions:
REMARK  status: ('A' for Active; 'I' for Inactive)
REMARK    1  A    between atoms: C6_6  and  N10_10 
REMARK    2  A    between atoms: C7_7  and  C8_8 
REMARK    3  A    between atoms: C7_7  and  C9_9 
REMARK    4  A    between atoms: C8_8  and  N10_10 
ROOT
HETATM    1  C1  UNL     1     -34.702   7.607   3.902  1.00 20.00     0.013 C 
HETATM    2  C2  UNL     1     -34.217   6.721   3.252  1.00 20.00    -0.087 C 
HETATM    3  C6  UNL     1     -33.628   5.637   2.463  1.00 20.00     0.364 C 
ENDROOT
BRANCH   3   4
HETATM    4  N10 UNL     1     -32.984   6.168   1.250  1.00 20.00     0.095 N 
HETATM    5  C5  UNL     1     -32.833   5.086   0.264  1.00 20.00     0.310 C 
BRANCH   4   6
HETATM    6  C8  UNL     1     -31.722   6.782   1.552  1.00 20.00     0.273 C 
BRANCH   6   7
HETATM    7  C7  UNL     1     -31.881   8.169   2.172  1.00 20.00     0.034 C 
BRANCH   7   8
HETATM    8  C9  UNL     1     -32.646   9.188   1.304  1.00 20.00    -0.021 C 
HETATM    9  C3  UNL     1     -31.912   9.387  -0.025  1.00 20.00     0.009 C 
HETATM   10  C4  UNL     1     -32.821  10.536   2.003  1.00 20.00     0.009 C 
ENDBRANCH   7   8
ENDBRANCH   6   7
ENDBRANCH   4   6
ENDBRANCH   3   4
TORSDOF 4
