REMARK  1 active torsions:
REMARK  status: ('A' for Active; 'I' for Inactive)
REMARK    1  A    between atoms: C7_7  and  C8_8 
ROOT
HETATM    1  C1  UNL     1     -32.626   9.653   0.571  1.00 20.00     0.012 C 
HETATM    2  C2  UNL     1     -32.278   8.676   1.174  1.00 20.00    -0.117 C 
HETATM    3  C8  UNL     1     -31.851   7.479   1.913  1.00 20.00     0.105 C 
ENDROOT
BRANCH   3   4
HETATM    4  C7  UNL     1     -32.969   6.461   2.013  1.00 20.00     0.066 C 
HETATM    5  C3  UNL     1     -33.952   6.768   3.124  1.00 20.00     0.132 C 
HETATM    6  C4  UNL     1     -34.303   5.539   3.924  1.00 20.00     0.079 C 
HETATM    7  O9  UNL     1     -34.412   7.880   3.354  1.00 20.00    -0.298 OA
HETATM    8  C5  UNL     1     -33.692   4.427   3.080  1.00 20.00     0.008 C 
HETATM    9  C6  UNL     1     -32.477   5.072   2.425  1.00 20.00     0.013 C 
ENDBRANCH   3   4
TORSDOF 1
