REMARK  3 active torsions:
REMARK  status: ('A' for Active; 'I' for Inactive)
REMARK    1  A    between atoms: C5_5  and  C8_8 
REMARK    2  A    between atoms: C8_8  and  C9_9 
REMARK    3  A    between atoms: C9_9  and  C10_10 
ROOT
HETATM    1  C1  UNL     1     -32.989   5.363   2.295  1.00 20.00     0.131 C 
HETATM    2  C2  UNL     1     -33.758   4.995   3.538  1.00 20.00     0.079 C 
HETATM    3  C3  UNL     1     -34.419   6.318   3.904  1.00 20.00     0.008 C 
HETATM    4  C4  UNL     1     -33.435   7.378   3.425  1.00 20.00     0.013 C 
HETATM    5  C5  UNL     1     -32.961   6.860   2.066  1.00 20.00     0.055 C 
HETATM    6  O11 UNL     1     -32.452   4.541   1.562  1.00 20.00    -0.298 OA
ENDROOT
BRANCH   5   7
HETATM    7  C8  UNL     1     -31.588   7.375   1.683  1.00 20.00     0.012 C 
BRANCH   7   8
HETATM    8  C9  UNL     1     -31.611   8.884   1.426  1.00 20.00     0.005 C 
BRANCH   8   9
HETATM    9  C10 UNL     1     -32.508   9.291   0.243  1.00 20.00    -0.023 C 
HETATM   10  C6  UNL     1     -32.012   8.620  -1.040  1.00 20.00     0.009 C 
HETATM   11  C7  UNL     1     -32.560  10.807   0.044  1.00 20.00     0.009 C 
ENDBRANCH   8   9
ENDBRANCH   7   8
ENDBRANCH   5   7
TORSDOF 3
