REMARK  3 active torsions:
REMARK  status: ('A' for Active; 'I' for Inactive)
REMARK    1  A    between atoms: C5_5  and  C8_8 
REMARK    2  A    between atoms: C8_8  and  C9_9 
REMARK    3  A    between atoms: C9_9  and  C10_10 
ROOT
HETATM    1  C1  UNL     1     -33.299   5.781   2.376  1.00 20.00     0.131 C 
HETATM    2  C2  UNL     1     -34.633   5.314   2.903  1.00 20.00     0.079 C 
HETATM    3  C3  UNL     1     -34.795   6.169   4.154  1.00 20.00     0.008 C 
HETATM    4  C4  UNL     1     -34.076   7.469   3.821  1.00 20.00     0.013 C 
HETATM    5  C5  UNL     1     -32.805   7.018   3.098  1.00 20.00     0.055 C 
HETATM    6  O11 UNL     1     -32.695   5.221   1.470  1.00 20.00    -0.298 OA
ENDROOT
BRANCH   5   7
HETATM    7  C8  UNL     1     -32.253   8.071   2.159  1.00 20.00     0.012 C 
BRANCH   7   8
HETATM    8  C9  UNL     1     -33.079   8.161   0.874  1.00 20.00     0.005 C 
BRANCH   8   9
HETATM    9  C10 UNL     1     -32.603   9.267  -0.086  1.00 20.00    -0.023 C 
HETATM   10  C6  UNL     1     -31.152   9.008  -0.497  1.00 20.00     0.009 C 
HETATM   11  C7  UNL     1     -32.723  10.664   0.526  1.00 20.00     0.009 C 
ENDBRANCH   8   9
ENDBRANCH   7   8
ENDBRANCH   5   7
TORSDOF 3
