REMARK  0 active torsions:
REMARK  status: ('A' for Active; 'I' for Inactive)
ROOT
HETATM    1  C1  UNL     1     -34.306   6.082   3.447  1.00 20.00     0.225 C 
HETATM    2  C2  UNL     1     -32.492   7.355   1.521  1.00 20.00     0.021 C 
HETATM    3  C3  UNL     1     -32.582   7.900   2.940  1.00 20.00     0.020 C 
HETATM    4  C4  UNL     1     -32.666   5.851   1.553  1.00 20.00     0.122 C 
HETATM    5  C5  UNL     1     -33.935   7.566   3.597  1.00 20.00     0.034 C 
HETATM    6  C6  UNL     1     -35.071   8.383   2.955  1.00 20.00     0.025 C 
HETATM    7  C7  UNL     1     -33.858   7.922   5.091  1.00 20.00     0.025 C 
HETATM    8  N8  UNL     1     -33.798   5.418   2.350  1.00 20.00    -0.360 N 
HETATM    9  O9  UNL     1     -35.102   5.536   4.215  1.00 20.00    -0.273 OA
HETATM   10  H22 UNL     1     -34.256   4.554   2.076  1.00 20.00     0.162 HD
ENDROOT
TORSDOF 0
