REMARK  3 active torsions:
REMARK  status: ('A' for Active; 'I' for Inactive)
REMARK    1  A    between atoms: C3_3  and  C4_4 
REMARK    2  A    between atoms: C3_3  and  C5_5 
REMARK    3  A    between atoms: C4_4  and  N6_6 
ROOT
HETATM    1  C3  UNL     1     -33.806   8.146   2.108  1.00 20.00     0.152 C 
ENDROOT
BRANCH   1   2
HETATM    2  C4  UNL     1     -32.356   8.482   1.723  1.00 20.00     0.224 C 
HETATM    3  C1  UNL     1     -31.543   7.202   1.533  1.00 20.00     0.043 C 
BRANCH   2   4
HETATM    4  N6  UNL     1     -32.300   9.260   0.486  1.00 20.00     0.083 N 
HETATM    5  C2  UNL     1     -32.646  10.651   0.737  1.00 20.00     0.307 C 
HETATM    6  H19 UNL     1     -31.357   9.208   0.106  1.00 20.00     0.315 HD
ENDBRANCH   2   4
ENDBRANCH   1   2
BRANCH   1   7
HETATM    7  C5  UNL     1     -33.940   7.415   3.431  1.00 20.00     0.389 C 
HETATM    8  F7  UNL     1     -33.343   6.206   3.402  1.00 20.00    -0.171 F 
HETATM    9  F8  UNL     1     -35.244   7.217   3.727  1.00 20.00    -0.171 F 
HETATM   10  F9  UNL     1     -33.396   8.127   4.441  1.00 20.00    -0.171 F 
ENDBRANCH   1   7
TORSDOF 3
