REMARK  3 active torsions:
REMARK  status: ('A' for Active; 'I' for Inactive)
REMARK    1  A    between atoms: C6_6  and  C9_9 
REMARK    2  A    between atoms: C7_7  and  C10_10 
REMARK    3  A    between atoms: C10_10  and  N11_11 
ROOT
HETATM    1  C1  UNL     1     -33.305   7.764   2.957  1.00 20.00     0.032 C 
HETATM    2  C2  UNL     1     -32.280   6.038   1.436  1.00 20.00     0.032 C 
HETATM    3  C3  UNL     1     -34.209   6.694   3.552  1.00 20.00     0.235 C 
HETATM    4  C4  UNL     1     -33.189   4.976   2.039  1.00 20.00     0.235 C 
HETATM    5  C6  UNL     1     -32.908   7.435   1.513  1.00 20.00    -0.012 C 
HETATM    6  N11 UNL     1     -33.525   5.351   3.462  1.00 20.00    -0.069 N 
HETATM    7  H32 UNL     1     -32.636   5.425   3.976  1.00 20.00     0.280 HD
ENDROOT
BRANCH   6   8
HETATM    8  C10 UNL     1     -34.322   4.275   4.146  1.00 20.00     0.268 C 
BRANCH   8   9
HETATM    9  C7  UNL     1     -33.420   3.096   4.437  1.00 20.00     0.171 A 
HETATM   10  C5  UNL     1     -32.466   3.114   5.599  1.00 20.00     0.201 A 
HETATM   11  O12 UNL     1     -32.025   3.354   4.253  1.00 20.00    -0.380 OA
ENDBRANCH   8   9
ENDBRANCH   6   8
BRANCH   5  12
HETATM   12  C9  UNL     1     -31.952   8.490   0.960  1.00 20.00     0.000 C 
HETATM   13  C8  UNL     1     -32.558   9.854   0.993  1.00 20.00     0.005 C 
ENDBRANCH   5  12
TORSDOF 3
