REMARK  1 active torsions:
REMARK  status: ('A' for Active; 'I' for Inactive)
REMARK    1  A    between atoms: C7_7  and  N9_9 
ROOT
HETATM    1  C1  UNL     1     -32.366   9.383   0.011  1.00 20.00     0.089 C 
HETATM    2  C7  UNL     1     -31.737   8.119   0.388  1.00 20.00     0.395 C 
HETATM    3  N8  UNL     1     -32.863  10.387  -0.291  1.00 20.00    -0.195 NA
ENDROOT
BRANCH   2   4
HETATM    4  N9  UNL     1     -32.436   7.505   1.519  1.00 20.00     0.102 N 
HETATM    5  C3  UNL     1     -32.145   6.071   1.610  1.00 20.00     0.274 C 
HETATM    6  C2  UNL     1     -33.412   5.268   1.934  1.00 20.00     0.040 C 
HETATM    7  C5  UNL     1     -33.917   5.329   3.372  1.00 20.00     0.075 C 
HETATM    8  S10 UNL     1     -34.331   6.993   3.973  1.00 20.00    -0.167 SA
HETATM    9  C6  UNL     1     -32.648   7.666   4.069  1.00 20.00     0.104 C 
HETATM   10  C4  UNL     1     -32.144   8.253   2.749  1.00 20.00     0.283 C 
ENDBRANCH   2   4
TORSDOF 1
