REMARK  2 active torsions:
REMARK  status: ('A' for Active; 'I' for Inactive)
REMARK    1  A    between atoms: C6_6  and  C9_9 
REMARK    2  A    between atoms: C7_7  and  N10_10 
ROOT
HETATM    1  C1  UNL     1     -32.362   8.315   1.419  1.00 20.00     0.158 C 
HETATM    2  N10 UNL     1     -32.233   7.575   2.319  1.00 20.00    -0.270 NA
HETATM    3  S11 UNL     1     -32.506   9.337   0.206  1.00 20.00    -0.055 SA
ENDROOT
BRANCH   2   4
HETATM    4  C7  UNL     1     -33.313   6.592   2.462  1.00 20.00     0.109 C 
HETATM    5  C4  UNL     1     -33.996   6.790   3.814  1.00 20.00     0.028 C 
HETATM    6  C2  UNL     1     -35.056   5.719   4.067  1.00 20.00     0.007 C 
HETATM    7  C6  UNL     1     -34.515   4.289   3.917  1.00 20.00    -0.015 C 
HETATM    8  C3  UNL     1     -33.796   4.116   2.570  1.00 20.00     0.007 C 
HETATM    9  C5  UNL     1     -32.736   5.185   2.315  1.00 20.00     0.028 C 
BRANCH   7  10
HETATM   10  C9  UNL     1     -33.614   3.900   5.092  1.00 20.00     0.000 C 
HETATM   11  C8  UNL     1     -33.132   2.491   4.974  1.00 20.00     0.005 C 
ENDBRANCH   7  10
ENDBRANCH   2   4
TORSDOF 2
