REMARK  1 active torsions:
REMARK  status: ('A' for Active; 'I' for Inactive)
REMARK    1  A    between atoms: C5_5  and  N7_7 
ROOT
HETATM    1  C1  UNL     1     -32.203   8.619   1.099  1.00 20.00     0.158 C 
HETATM    2  N7  UNL     1     -32.100   7.616   1.702  1.00 20.00    -0.268 NA
HETATM    3  S9  UNL     1     -32.315   9.980   0.278  1.00 20.00    -0.055 SA
ENDROOT
BRANCH   2   4
HETATM    4  C5  UNL     1     -33.361   7.053   2.183  1.00 20.00     0.139 C 
HETATM    5  C2  UNL     1     -33.269   5.535   2.294  1.00 20.00     0.059 C 
HETATM    6  C3  UNL     1     -33.427   5.246   3.781  1.00 20.00     0.274 C 
HETATM    7  N8  UNL     1     -34.171   6.385   4.335  1.00 20.00     0.086 N 
HETATM    8  C4  UNL     1     -33.655   7.547   3.597  1.00 20.00     0.299 C 
HETATM    9  C6  UNL     1     -35.614   6.228   4.151  1.00 20.00     0.310 C 
ENDBRANCH   2   4
TORSDOF 1
