REMARK  3 active torsions:
REMARK  status: ('A' for Active; 'I' for Inactive)
REMARK    1  A    between atoms: C4_4  and  N11_11 
REMARK    2  A    between atoms: C8_8  and  C9_9 
REMARK    3  A    between atoms: C8_8  and  N11_11 
ROOT
HETATM    1  C1  UNL     1     -35.195   6.911   3.763  1.00 20.00     0.067 C 
HETATM    2  C2  UNL     1     -35.368   5.430   4.081  1.00 20.00     0.274 C 
HETATM    3  C3  UNL     1     -33.208   5.623   3.255  1.00 20.00     0.307 C 
HETATM    4  C4  UNL     1     -33.753   7.048   3.271  1.00 20.00     0.250 C 
HETATM    5  C7  UNL     1     -33.881   3.522   4.264  1.00 20.00     0.310 C 
HETATM    6  N10 UNL     1     -33.996   4.973   4.303  1.00 20.00     0.086 N 
ENDROOT
BRANCH   4   7
HETATM    7  N11 UNL     1     -33.658   7.682   1.985  1.00 20.00     0.090 N 
HETATM    8  H31 UNL     1     -34.329   8.449   1.938  1.00 20.00     0.316 HD
BRANCH   7   9
HETATM    9  C8  UNL     1     -32.317   8.204   1.757  1.00 20.00     0.274 C 
BRANCH   9  10
HETATM   10  C9  UNL     1     -32.211   8.933   0.412  1.00 20.00     0.005 C 
HETATM   11  C5  UNL     1     -32.536   8.020  -0.771  1.00 20.00     0.011 C 
HETATM   12  C6  UNL     1     -33.076  10.193   0.373  1.00 20.00     0.011 C 
ENDBRANCH   9  10
ENDBRANCH   7   9
ENDBRANCH   4   7
TORSDOF 3
