REMARK  2 active torsions:
REMARK  status: ('A' for Active; 'I' for Inactive)
REMARK    1  A    between atoms: C6_6  and  C7_7 
REMARK    2  A    between atoms: C7_7  and  N8_8 
ROOT
HETATM    1  C1  UNL     1     -32.175   8.886   1.005  1.00 20.00     0.157 C 
HETATM    2  N8  UNL     1     -31.813   7.988   1.674  1.00 20.00    -0.273 NA
HETATM    3  S10 UNL     1     -32.647  10.115   0.109  1.00 20.00    -0.055 SA
ENDROOT
BRANCH   2   4
HETATM    4  C7  UNL     1     -32.568   6.749   1.508  1.00 20.00     0.182 C 
BRANCH   4   5
HETATM    5  C6  UNL     1     -33.180   6.365   2.848  1.00 20.00     0.141 C 
HETATM    6  C4  UNL     1     -33.545   4.879   2.880  1.00 20.00     0.034 C 
HETATM    7  C2  UNL     1     -34.261   4.529   4.182  1.00 20.00     0.005 C 
HETATM    8  C3  UNL     1     -35.424   5.484   4.427  1.00 20.00     0.026 C 
HETATM    9  C5  UNL     1     -34.966   6.931   4.307  1.00 20.00     0.168 C 
HETATM   10  O9  UNL     1     -34.352   7.166   3.040  1.00 20.00    -0.384 OA
ENDBRANCH   4   5
ENDBRANCH   2   4
TORSDOF 2
