REMARK  1 active torsions:
REMARK  status: ('A' for Active; 'I' for Inactive)
REMARK    1  A    between atoms: C1_1  and  O10_10 
ROOT
HETATM    1  C1  UNL     1     -34.032   6.420   3.086  1.00 20.00     0.099 C 
HETATM    2  C2  UNL     1     -33.880   6.506   1.746  1.00 20.00     0.026 C 
HETATM    3  C3  UNL     1     -33.149   7.542   3.525  1.00 20.00     0.183 C 
HETATM    4  C4  UNL     1     -32.973   5.515   1.062  1.00 20.00     0.018 C 
HETATM    5  C5  UNL     1     -33.583   7.920   1.315  1.00 20.00     0.030 C 
HETATM    6  C6  UNL     1     -31.537   5.812   1.571  1.00 20.00     0.002 C 
HETATM    7  C7  UNL     1     -31.237   7.316   1.879  1.00 20.00     0.013 C 
HETATM    8  C8  UNL     1     -32.469   8.154   2.314  1.00 20.00     0.063 C 
HETATM    9  O9  UNL     1     -32.933   7.832   4.690  1.00 20.00    -0.290 OA
ENDROOT
BRANCH   1  10
HETATM   10  O10 UNL     1     -34.105   5.294   3.853  1.00 20.00    -0.360 OA
HETATM   11  H20 UNL     1     -34.215   5.525   4.786  1.00 20.00     0.217 HD
ENDBRANCH   1  10
TORSDOF 1
