REMARK  1 active torsions:
REMARK  status: ('A' for Active; 'I' for Inactive)
REMARK    1  A    between atoms: C3_3  and  O8_8 
ROOT
HETATM    1  C1  UNL     1     -33.213   7.176   2.787  1.00 20.00     0.040 C 
HETATM    2  C2  UNL     1     -33.721   7.930   4.002  1.00 20.00     0.172 C 
HETATM    3  C3  UNL     1     -35.003   5.999   3.741  1.00 20.00     0.264 C 
HETATM    4  C4  UNL     1     -33.644   5.744   3.074  1.00 20.00     0.004 C 
HETATM    5  C5  UNL     1     -32.645   5.052   4.019  1.00 20.00     0.020 C 
HETATM    6  C6  UNL     1     -33.779   4.910   1.798  1.00 20.00     0.020 C 
HETATM    7  O7  UNL     1     -34.848   7.202   4.511  1.00 20.00    -0.361 OA
ENDROOT
BRANCH   3   8
HETATM    8  O8  UNL     1     -35.411   4.902   4.540  1.00 20.00    -0.371 OA
HETATM    9  H20 UNL     1     -36.270   5.141   4.922  1.00 20.00     0.212 HD
ENDBRANCH   3   8
TORSDOF 1
