REMARK  3 active torsions:
REMARK  status: ('A' for Active; 'I' for Inactive)
REMARK    1  A    between atoms: C3_3  and  C4_4 
REMARK    2  A    between atoms: C4_4  and  C5_5 
REMARK    3  A    between atoms: C4_4  and  O6_6 
ROOT
HETATM    1  C4  UNL     1     -32.397   7.461   3.390  1.00 20.00     0.229 C 
ENDROOT
BRANCH   1   2
HETATM    2  C3  UNL     1     -33.859   7.568   3.658  1.00 20.00     0.023 A 
HETATM    3  C1  UNL     1     -34.711   6.330   3.710  1.00 20.00     0.008 A 
HETATM    4  C2  UNL     1     -34.424   7.098   4.970  1.00 20.00     0.008 A 
ENDBRANCH   1   2
BRANCH   1   5
HETATM    5  C5  UNL     1     -32.088   7.327   1.910  1.00 20.00     0.413 C 
HETATM    6  F7  UNL     1     -32.626   6.197   1.401  1.00 20.00    -0.168 F 
HETATM    7  F8  UNL     1     -32.598   8.366   1.213  1.00 20.00    -0.168 F 
HETATM    8  F9  UNL     1     -30.758   7.288   1.682  1.00 20.00    -0.168 F 
ENDBRANCH   1   5
BRANCH   1   9
HETATM    9  O6  UNL     1     -31.728   8.628   3.872  1.00 20.00    -0.386 OA
HETATM   10  H16 UNL     1     -31.902   8.668   4.825  1.00 20.00     0.210 HD
ENDBRANCH   1   9
TORSDOF 3
