REMARK  0 active torsions:
REMARK  status: ('A' for Active; 'I' for Inactive)
ROOT
HETATM    1  C1  UNL     1     -34.229   5.071   3.973  1.00 20.00     0.137 C 
HETATM    2  C2  UNL     1     -34.062   6.596   2.026  1.00 20.00     0.108 C 
HETATM    3  C3  UNL     1     -34.518   6.404   3.454  1.00 20.00     0.326 C 
HETATM    4  N4  UNL     1     -34.001   4.012   4.388  1.00 20.00    -0.191 NA
HETATM    5  F5  UNL     1     -35.854   6.631   3.533  1.00 20.00    -0.190 F 
HETATM    6  F6  UNL     1     -33.918   7.328   4.246  1.00 20.00    -0.190 F 
ENDROOT
TORSDOF 0
