REMARK  4 active torsions:
REMARK  status: ('A' for Active; 'I' for Inactive)
REMARK    1  A    between atoms: C4_4  and  N11_11 
REMARK    2  A    between atoms: C7_7  and  C9_9 
REMARK    3  A    between atoms: C8_8  and  N11_11 
REMARK    4  A    between atoms: C9_9  and  N11_11 
ROOT
HETATM    1  C1  UNL     1     -34.689   5.735   3.863  1.00 20.00     0.095 C 
HETATM    2  C9  UNL     1     -34.148   6.975   3.289  1.00 20.00     0.328 C 
HETATM    3  N10 UNL     1     -35.119   4.755   4.313  1.00 20.00    -0.195 NA
ENDROOT
BRANCH   2   4
HETATM    4  C7  UNL     1     -34.111   8.123   4.306  1.00 20.00     0.046 C 
HETATM    5  C5  UNL     1     -33.248   7.855   5.536  1.00 20.00     0.008 C 
ENDBRANCH   2   4
BRANCH   2   6
HETATM    6  N11 UNL     1     -32.847   6.741   2.713  1.00 20.00     0.110 N 
BRANCH   6   7
HETATM    7  C4  UNL     1     -32.912   5.735   1.643  1.00 20.00     0.224 A 
HETATM    8  C2  UNL     1     -31.657   5.277   0.953  1.00 20.00     0.038 A 
HETATM    9  C3  UNL     1     -32.390   4.343   1.871  1.00 20.00     0.038 A 
ENDBRANCH   6   7
BRANCH   6  10
HETATM   10  C8  UNL     1     -32.267   7.985   2.187  1.00 20.00     0.270 C 
HETATM   11  C6  UNL     1     -33.089   8.532   1.071  1.00 20.00     0.037 C 
ENDBRANCH   6  10
ENDBRANCH   2   6
TORSDOF 4
