REMARK  4 active torsions:
REMARK  status: ('A' for Active; 'I' for Inactive)
REMARK    1  A    between atoms: C4_4  and  C5_5 
REMARK    2  A    between atoms: C4_4  and  O8_8 
REMARK    3  A    between atoms: C5_5  and  S9_9 
REMARK    4  A    between atoms: C6_6  and  S9_9 
ROOT
HETATM    1  C1  UNL     1     -33.771   4.130   3.804  1.00 20.00     0.074 C 
HETATM    2  C2  UNL     1     -34.986   6.277   3.821  1.00 20.00     0.037 C 
HETATM    3  C6  UNL     1     -33.671   5.568   3.516  1.00 20.00     0.150 C 
HETATM    4  N7  UNL     1     -33.844   2.995   4.032  1.00 20.00    -0.196 NA
ENDROOT
BRANCH   3   5
HETATM    5  S9  UNL     1     -33.223   5.855   1.789  1.00 20.00    -0.148 SA
BRANCH   5   6
HETATM    6  C5  UNL     1     -32.602   7.556   1.960  1.00 20.00     0.101 C 
BRANCH   6   7
HETATM    7  C4  UNL     1     -32.127   8.111   0.626  1.00 20.00     0.177 C 
BRANCH   7   8
HETATM    8  O8  UNL     1     -31.653   9.441   0.792  1.00 20.00    -0.395 OA
HETATM    9  C3  UNL     1     -32.717  10.382   0.762  1.00 20.00     0.201 C 
ENDBRANCH   7   8
ENDBRANCH   6   7
ENDBRANCH   5   6
ENDBRANCH   3   5
TORSDOF 4
