REMARK  7 active torsions:
REMARK  status: ('A' for Active; 'I' for Inactive)
REMARK    1  A    between atoms: C1_1  and  C6_6 
REMARK    2  A    between atoms: C2_2  and  C7_7 
REMARK    3  A    between atoms: C3_3  and  C8_8 
REMARK    4  A    between atoms: C6_6  and  C10_10 
REMARK    5  A    between atoms: C7_7  and  C11_11 
REMARK    6  A    between atoms: C8_8  and  C10_10 
REMARK    7  A    between atoms: C9_9  and  C11_11 
ROOT
HETATM    1  C1  UNL     1     -32.571   5.140   2.931  1.00 20.00    -0.107 C 
HETATM    2  C2  UNL     1     -32.190   5.901   2.083  1.00 20.00    -0.107 C 
ENDROOT
BRANCH   1   3
HETATM    3  C6  UNL     1     -33.060   4.226   3.972  1.00 20.00     0.094 C 
BRANCH   3   4
HETATM    4  C10 UNL     1     -34.552   4.416   4.248  1.00 20.00     0.019 C 
BRANCH   4   5
HETATM    5  C8  UNL     1     -34.884   5.807   4.791  1.00 20.00     0.079 C 
BRANCH   5   6
HETATM    6  C3  UNL     1     -34.561   6.910   3.798  1.00 20.00     0.123 C 
HETATM    7  C4  UNL     1     -33.590   7.962   4.268  1.00 20.00     0.091 C 
HETATM    8  O12 UNL     1     -35.052   6.959   2.671  1.00 20.00    -0.298 OA
ENDBRANCH   5   6
ENDBRANCH   4   5
ENDBRANCH   3   4
ENDBRANCH   1   3
BRANCH   2   9
HETATM    9  C7  UNL     1     -31.746   6.846   1.050  1.00 20.00     0.094 C 
BRANCH   9  10
HETATM   10  C11 UNL     1     -32.376   8.230   1.227  1.00 20.00     0.012 C 
BRANCH  10  11
HETATM   11  C9  UNL     1     -31.938   9.226   0.149  1.00 20.00    -0.004 C 
HETATM   12  C5  UNL     1     -32.591  10.585   0.351  1.00 20.00     0.005 C 
ENDBRANCH  10  11
ENDBRANCH   9  10
ENDBRANCH   2   9
TORSDOF 7
