REMARK  2 active torsions:
REMARK  status: ('A' for Active; 'I' for Inactive)
REMARK    1  A    between atoms: C3_3  and  C8_8 
REMARK    2  A    between atoms: C7_7  and  C8_8 
ROOT
HETATM    1  C1  UNL     1     -31.883   6.971   0.852  1.00 20.00     0.053 A 
HETATM    2  C2  UNL     1     -33.274   5.735   2.393  1.00 20.00     0.087 A 
HETATM    3  C3  UNL     1     -32.108   8.137   1.584  1.00 20.00    -0.007 A 
HETATM    4  C4  UNL     1     -32.466   5.770   1.256  1.00 20.00     0.120 A 
HETATM    5  C5  UNL     1     -33.499   6.900   3.125  1.00 20.00     0.158 A 
HETATM    6  C6  UNL     1     -32.916   8.101   2.721  1.00 20.00     0.161 A 
HETATM    7  F10 UNL     1     -32.251   4.650   0.553  1.00 20.00    -0.206 F 
HETATM    8  F11 UNL     1     -34.274   6.866   4.217  1.00 20.00    -0.203 F 
HETATM    9  F12 UNL     1     -33.137   9.216   3.431  1.00 20.00    -0.202 F 
ENDROOT
BRANCH   3  10
HETATM   10  C8  UNL     1     -31.484   9.419   1.149  1.00 20.00     0.111 C 
BRANCH  10  11
HETATM   11  C7  UNL     1     -32.162  10.061  -0.041  1.00 20.00     0.235 C 
HETATM   12  O9  UNL     1     -33.104   9.571  -0.654  1.00 20.00    -0.307 OA
ENDBRANCH  10  11
ENDBRANCH   3  10
TORSDOF 2
