REMARK  1 active torsions:
REMARK  status: ('A' for Active; 'I' for Inactive)
REMARK    1  A    between atoms: C3_3  and  C6_6 
ROOT
HETATM    1  C1  UNL     1     -33.830   6.920   3.537  1.00 20.00     0.088 C 
HETATM    2  C2  UNL     1     -33.394   6.002   2.542  1.00 20.00     0.096 C 
HETATM    3  C3  UNL     1     -32.452   6.300   1.627  1.00 20.00    -0.070 C 
HETATM    4  C7  UNL     1     -31.965   5.376   0.571  1.00 20.00     0.044 C 
HETATM    5  N8  UNL     1     -34.189   7.666   4.350  1.00 20.00    -0.192 NA
ENDROOT
BRANCH   3   6
HETATM    6  C6  UNL     1     -31.813   7.666   1.636  1.00 20.00     0.015 A 
HETATM    7  C4  UNL     1     -31.870   8.447   0.381  1.00 20.00     0.010 A 
HETATM    8  C5  UNL     1     -32.716   8.836   1.556  1.00 20.00     0.010 A 
ENDBRANCH   3   6
TORSDOF 1
