REMARK  0 active torsions:
REMARK  status: ('A' for Active; 'I' for Inactive)
ROOT
HETATM    1  C1  UNL     1     -32.336   9.478   0.285  1.00 20.00     0.088 C 
HETATM    2  C2  UNL     1     -32.354   7.414   1.525  1.00 20.00    -0.060 C 
HETATM    3  C3  UNL     1     -32.068   8.091   0.407  1.00 20.00     0.097 C 
HETATM    4  C4  UNL     1     -32.091   5.947   1.707  1.00 20.00     0.046 C 
HETATM    5  C5  UNL     1     -33.059   8.017   2.701  1.00 20.00     0.108 C 
HETATM    6  C6  UNL     1     -33.336   5.372   2.363  1.00 20.00     0.078 C 
HETATM    7  N7  UNL     1     -32.553  10.613   0.180  1.00 20.00    -0.192 NA
HETATM    8  S8  UNL     1     -33.872   6.630   3.554  1.00 20.00    -0.165 SA
ENDROOT
TORSDOF 0
