REMARK  4 active torsions:
REMARK  status: ('A' for Active; 'I' for Inactive)
REMARK    1  A    between atoms: C1_1  and  C9_9 
REMARK    2  A    between atoms: C6_6  and  C7_7 
REMARK    3  A    between atoms: C6_6  and  C8_8 
REMARK    4  A    between atoms: C7_7  and  C9_9 
ROOT
HETATM    1  C7  UNL     1     -33.546   8.190   2.223  1.00 20.00     0.016 C 
ENDROOT
BRANCH   1   2
HETATM    2  C6  UNL     1     -32.145   8.434   1.640  1.00 20.00     0.005 C 
BRANCH   2   3
HETATM    3  C8  UNL     1     -32.158   9.305   0.368  1.00 20.00    -0.023 C 
HETATM    4  C2  UNL     1     -32.766  10.674   0.683  1.00 20.00     0.009 C 
HETATM    5  C3  UNL     1     -32.926   8.651  -0.781  1.00 20.00     0.009 C 
ENDBRANCH   2   3
ENDBRANCH   1   2
BRANCH   1   6
HETATM    6  C9  UNL     1     -33.568   7.369   3.535  1.00 20.00     0.006 C 
HETATM    7  C4  UNL     1     -32.795   8.138   4.619  1.00 20.00     0.022 C 
HETATM    8  C5  UNL     1     -32.937   5.982   3.358  1.00 20.00     0.022 C 
BRANCH   6   9
HETATM    9  C1  UNL     1     -35.008   7.252   4.024  1.00 20.00     0.239 C 
HETATM   10  O10 UNL     1     -35.592   6.191   4.222  1.00 20.00    -0.306 OA
ENDBRANCH   6   9
ENDBRANCH   1   6
TORSDOF 4
