REMARK  2 active torsions:
REMARK  status: ('A' for Active; 'I' for Inactive)
REMARK    1  A    between atoms: C6_6  and  C9_9 
REMARK    2  A    between atoms: C10_10  and  N12_12 
ROOT
HETATM    1  C1  UNL     1     -33.717   3.731   4.430  1.00 20.00     0.092 C 
HETATM    2  C8  UNL     1     -35.802   5.057   4.524  1.00 20.00     0.056 C 
HETATM    3  C10 UNL     1     -34.284   5.082   4.448  1.00 20.00     0.289 C 
HETATM    4  N11 UNL     1     -33.265   2.662   4.417  1.00 20.00    -0.195 NA
ENDROOT
BRANCH   3   5
HETATM    5  N12 UNL     1     -33.887   5.799   3.187  1.00 20.00    -0.055 N 
HETATM    6  C4  UNL     1     -32.485   5.438   2.760  1.00 20.00     0.237 C 
HETATM    7  C2  UNL     1     -32.181   6.090   1.418  1.00 20.00     0.032 C 
HETATM    8  C6  UNL     1     -32.377   7.610   1.467  1.00 20.00    -0.012 C 
HETATM    9  C3  UNL     1     -33.784   7.953   1.971  1.00 20.00     0.032 C 
HETATM   10  C5  UNL     1     -34.080   7.291   3.310  1.00 20.00     0.237 C 
HETATM   11  H31 UNL     1     -34.526   5.468   2.451  1.00 20.00     0.281 HD
BRANCH   8  12
HETATM   12  C9  UNL     1     -32.126   8.233   0.096  1.00 20.00     0.000 C 
HETATM   13  C7  UNL     1     -32.277   9.719   0.128  1.00 20.00     0.005 C 
ENDBRANCH   8  12
ENDBRANCH   3   5
TORSDOF 2
