REMARK  2 active torsions:
REMARK  status: ('A' for Active; 'I' for Inactive)
REMARK    1  A    between atoms: C3_3  and  C8_8 
REMARK    2  A    between atoms: C7_7  and  C8_8 
ROOT
HETATM    1  C1  UNL     1     -33.980   5.609   3.787  1.00 20.00     0.088 C 
HETATM    2  C2  UNL     1     -33.530   6.917   3.461  1.00 20.00     0.096 C 
HETATM    3  C3  UNL     1     -32.880   7.239   2.325  1.00 20.00    -0.070 C 
HETATM    4  C4  UNL     1     -32.598   6.155   1.312  1.00 20.00     0.044 C 
HETATM    5  N9  UNL     1     -34.352   4.544   4.061  1.00 20.00    -0.192 NA
ENDROOT
BRANCH   3   6
HETATM    6  C8  UNL     1     -32.400   8.650   1.985  1.00 20.00     0.010 C 
HETATM    7  C6  UNL     1     -30.871   8.704   1.875  1.00 20.00     0.015 C 
BRANCH   6   8
HETATM    8  C7  UNL     1     -33.025   9.230   0.699  1.00 20.00     0.004 C 
HETATM    9  C5  UNL     1     -32.523  10.628   0.360  1.00 20.00     0.006 C 
ENDBRANCH   6   8
ENDBRANCH   3   6
TORSDOF 2
