REMARK  2 active torsions:
REMARK  status: ('A' for Active; 'I' for Inactive)
REMARK    1  A    between atoms: C4_4  and  C10_10 
REMARK    2  A    between atoms: C8_8  and  C10_10 
ROOT
HETATM    1  C5  UNL     1     -34.577   4.773   4.771  1.00 20.00     0.002 C 
HETATM    2  C6  UNL     1     -35.262   5.983   4.131  1.00 20.00     0.006 C 
HETATM    3  C7  UNL     1     -33.644   4.195   3.704  1.00 20.00     0.016 C 
HETATM    4  C8  UNL     1     -34.358   6.383   2.959  1.00 20.00     0.004 C 
HETATM    5  C9  UNL     1     -33.933   5.007   2.450  1.00 20.00     0.062 C 
HETATM    6 BR12 UNL     1     -32.441   5.017   1.227  1.00 20.00    -0.091 Br
ENDROOT
BRANCH   4   7
HETATM    7  C10 UNL     1     -33.230   7.300   3.440  1.00 20.00     0.045 C 
BRANCH   7   8
HETATM    8  C4  UNL     1     -32.614   8.075   2.305  1.00 20.00    -0.051 A 
HETATM    9  C1  UNL     1     -31.232   8.020   1.962  1.00 20.00     0.014 A 
HETATM   10  C2  UNL     1     -30.934   8.825   0.885  1.00 20.00     0.050 A 
HETATM   11  S11 UNL     1     -32.316   9.643   0.292  1.00 20.00    -0.113 SA
HETATM   12  C3  UNL     1     -33.319   8.921   1.477  1.00 20.00     0.056 A 
ENDBRANCH   7   8
ENDBRANCH   4   7
TORSDOF 2
