REMARK  3 active torsions:
REMARK  status: ('A' for Active; 'I' for Inactive)
REMARK    1  A    between atoms: C2_2  and  C9_9 
REMARK    2  A    between atoms: C6_6  and  C9_9 
REMARK    3  A    between atoms: C7_7  and  O10_10 
ROOT
HETATM    1  C3  UNL     1     -34.469   5.435   2.984  1.00 20.00     0.003 C 
HETATM    2  C4  UNL     1     -33.237   5.879   2.195  1.00 20.00     0.007 C 
HETATM    3  C5  UNL     1     -34.798   6.577   3.946  1.00 20.00     0.032 C 
HETATM    4  C6  UNL     1     -32.640   7.018   3.016  1.00 20.00     0.018 C 
HETATM    5  C7  UNL     1     -33.886   7.729   3.539  1.00 20.00     0.122 C 
ENDROOT
BRANCH   4   6
HETATM    6  C9  UNL     1     -31.726   7.925   2.206  1.00 20.00     0.034 C 
BRANCH   6   7
HETATM    7  C2  UNL     1     -32.445   8.520   1.032  1.00 20.00    -0.031 C 
HETATM    8  C1  UNL     1     -32.593   9.838   0.838  1.00 20.00    -0.035 C 
HETATM    9  C8  UNL     1     -33.313  10.432  -0.327  1.00 20.00     0.036 C 
ENDBRANCH   6   7
ENDBRANCH   4   6
BRANCH   5  10
HETATM   10  O10 UNL     1     -33.576   8.561   4.641  1.00 20.00    -0.395 OA
HETATM   11  H26 UNL     1     -34.417   8.913   4.979  1.00 20.00     0.210 HD
ENDBRANCH   5  10
TORSDOF 3
