REMARK  4 active torsions:
REMARK  status: ('A' for Active; 'I' for Inactive)
REMARK    1  A    between atoms: C5_5  and  C6_6 
REMARK    2  A    between atoms: C6_6  and  C8_8 
REMARK    3  A    between atoms: C7_7  and  C8_8 
REMARK    4  A    between atoms: C8_8  and  O9_9 
ROOT
HETATM    1  C1  UNL     1     -32.411  10.369  -0.370  1.00 20.00     0.012 C 
HETATM    2  C2  UNL     1     -32.425   9.587   0.540  1.00 20.00    -0.117 C 
HETATM    3  C5  UNL     1     -32.439   8.634   1.659  1.00 20.00     0.095 C 
ENDROOT
BRANCH   3   4
HETATM    4  C6  UNL     1     -33.203   7.354   1.323  1.00 20.00     0.044 C 
BRANCH   4   5
HETATM    5  C8  UNL     1     -33.345   6.340   2.473  1.00 20.00     0.122 C 
BRANCH   5   6
HETATM    6  C7  UNL     1     -34.498   6.615   3.464  1.00 20.00     0.006 C 
HETATM    7  C3  UNL     1     -34.581   5.502   4.517  1.00 20.00     0.012 C 
HETATM    8  C4  UNL     1     -34.372   7.967   4.171  1.00 20.00     0.012 C 
ENDBRANCH   5   6
BRANCH   5   9
HETATM    9  O9  UNL     1     -33.532   5.044   1.897  1.00 20.00    -0.395 OA
HETATM   10  H23 UNL     1     -33.618   4.427   2.638  1.00 20.00     0.210 HD
ENDBRANCH   5   9
ENDBRANCH   4   5
ENDBRANCH   3   4
TORSDOF 4
