REMARK  3 active torsions:
REMARK  status: ('A' for Active; 'I' for Inactive)
REMARK    1  A    between atoms: C5_5  and  C9_9 
REMARK    2  A    between atoms: C6_6  and  C10_10 
REMARK    3  A    between atoms: C10_10  and  C11_11 
ROOT
HETATM    1  C1  UNL     1     -33.296   5.571   2.069  1.00 20.00     0.131 C 
HETATM    2  C2  UNL     1     -31.958   5.345   1.399  1.00 20.00     0.079 C 
HETATM    3  C3  UNL     1     -31.486   6.616   0.707  1.00 20.00     0.012 C 
HETATM    4  C4  UNL     1     -32.882   8.026   2.261  1.00 20.00     0.016 C 
HETATM    5  C5  UNL     1     -33.382   6.778   2.996  1.00 20.00     0.055 C 
HETATM    6  C6  UNL     1     -31.481   7.816   1.665  1.00 20.00    -0.013 C 
HETATM    7  O12 UNL     1     -34.215   4.766   1.934  1.00 20.00    -0.298 OA
ENDROOT
BRANCH   6   8
HETATM    8  C10 UNL     1     -31.009   9.077   0.943  1.00 20.00     0.004 C 
BRANCH   8   9
HETATM    9  C11 UNL     1     -31.899   9.393  -0.255  1.00 20.00    -0.004 C 
HETATM   10  C8  UNL     1     -31.445  10.662  -0.958  1.00 20.00     0.005 C 
ENDBRANCH   8   9
ENDBRANCH   6   8
BRANCH   5  11
HETATM   11  C9  UNL     1     -34.801   6.991   3.515  1.00 20.00     0.007 C 
HETATM   12  C7  UNL     1     -35.314   5.785   4.234  1.00 20.00     0.006 C 
ENDBRANCH   5  11
TORSDOF 3
