REMARK  3 active torsions:
REMARK  status: ('A' for Active; 'I' for Inactive)
REMARK    1  A    between atoms: C5_5  and  C9_9 
REMARK    2  A    between atoms: C6_6  and  C10_10 
REMARK    3  A    between atoms: C9_9  and  C11_11 
ROOT
HETATM    1  C1  UNL     1     -31.643   6.857   1.793  1.00 20.00     0.131 C 
HETATM    2  C2  UNL     1     -32.595   5.693   1.627  1.00 20.00     0.079 C 
HETATM    3  C3  UNL     1     -33.396   5.459   2.899  1.00 20.00     0.012 C 
HETATM    4  C4  UNL     1     -33.069   7.854   3.597  1.00 20.00     0.016 C 
HETATM    5  C5  UNL     1     -32.213   8.147   2.360  1.00 20.00     0.055 C 
HETATM    6  C6  UNL     1     -34.099   6.737   3.374  1.00 20.00    -0.014 C 
HETATM    7  O12 UNL     1     -30.480   6.792   1.396  1.00 20.00    -0.298 OA
ENDROOT
BRANCH   5   8
HETATM    8  C9  UNL     1     -32.975   8.899   1.274  1.00 20.00     0.012 C 
BRANCH   8   9
HETATM    9  C11 UNL     1     -32.057   9.283   0.119  1.00 20.00    -0.004 C 
HETATM   10  C8  UNL     1     -32.822  10.009  -0.976  1.00 20.00     0.005 C 
ENDBRANCH   8   9
ENDBRANCH   5   8
BRANCH   6  11
HETATM   11  C10 UNL     1     -34.887   6.471   4.656  1.00 20.00     0.000 C 
HETATM   12  C7  UNL     1     -35.914   5.406   4.458  1.00 20.00     0.005 C 
ENDBRANCH   6  11
TORSDOF 3
