REMARK  0 active torsions:
REMARK  status: ('A' for Active; 'I' for Inactive)
ROOT
HETATM    1  C1  UNL     1     -32.571   8.630  -0.331  1.00 20.00    -0.030 C 
HETATM    2  C2  UNL     1     -32.911   9.631   0.487  1.00 20.00    -0.030 C 
HETATM    3  C3  UNL     1     -34.031   6.974   3.399  1.00 20.00     0.128 C 
HETATM    4  C4  UNL     1     -32.180   7.267   0.144  1.00 20.00     0.037 C 
HETATM    5  C5  UNL     1     -32.958   9.495   1.975  1.00 20.00     0.037 C 
HETATM    6  C6  UNL     1     -33.891   6.594   1.942  1.00 20.00     0.088 C 
HETATM    7  C7  UNL     1     -32.894   7.848   3.880  1.00 20.00     0.088 C 
HETATM    8  C8  UNL     1     -32.422   6.980   1.645  1.00 20.00    -0.026 C 
HETATM    9  C9  UNL     1     -32.217   8.245   2.549  1.00 20.00    -0.026 C 
HETATM   10  C10 UNL     1     -31.522   5.780   2.035  1.00 20.00     0.016 C 
HETATM   11  C11 UNL     1     -30.739   8.599   2.778  1.00 20.00     0.016 C 
HETATM   12  O12 UNL     1     -34.963   6.617   4.110  1.00 20.00    -0.298 OA
ENDROOT
TORSDOF 0
