REMARK  1 active torsions:
REMARK  status: ('A' for Active; 'I' for Inactive)
REMARK    1  A    between atoms: C8_8  and  O10_10 
ROOT
HETATM    1  C1  UNL     1     -33.808   7.793   2.798  1.00 20.00    -0.023 C 
HETATM    2  C2  UNL     1     -33.785   7.077   3.935  1.00 20.00     0.001 C 
HETATM    3  C3  UNL     1     -32.495   4.923   2.391  1.00 20.00     0.003 C 
HETATM    4  C4  UNL     1     -33.993   4.839   2.791  1.00 20.00     0.036 C 
HETATM    5  C5  UNL     1     -32.185   5.881   1.219  1.00 20.00     0.005 C 
HETATM    6  C6  UNL     1     -32.262   8.431   0.803  1.00 20.00     0.014 A 
HETATM    7  C7  UNL     1     -32.563   8.345   2.268  1.00 20.00     0.012 A 
HETATM    8  C8  UNL     1     -34.433   5.727   3.981  1.00 20.00     0.140 C 
HETATM    9  C9  UNL     1     -31.702   7.273   1.591  1.00 20.00    -0.006 A 
ENDROOT
BRANCH   8  10
HETATM   10  O10 UNL     1     -35.850   5.838   4.034  1.00 20.00    -0.392 OA
HETATM   11  H24 UNL     1     -36.200   4.933   4.061  1.00 20.00     0.210 HD
ENDBRANCH   8  10
TORSDOF 1
