REMARK  1 active torsions:
REMARK  status: ('A' for Active; 'I' for Inactive)
REMARK    1  A    between atoms: C6_6  and  O8_8 
ROOT
HETATM    1  C1  UNL     1     -33.814   7.686   4.219  1.00 20.00    -0.023 C 
HETATM    2  C2  UNL     1     -34.904   6.972   4.557  1.00 20.00     0.001 C 
HETATM    3  C3  UNL     1     -31.951   6.646   2.526  1.00 20.00     0.009 C 
HETATM    4  C4  UNL     1     -32.743   5.418   1.912  1.00 20.00     0.009 C 
HETATM    5  C5  UNL     1     -33.333   7.113   2.962  1.00 20.00     0.015 C 
HETATM    6  C6  UNL     1     -35.079   5.769   3.639  1.00 20.00     0.145 C 
HETATM    7  C7  UNL     1     -33.639   5.574   3.176  1.00 20.00     0.026 C 
ENDROOT
BRANCH   6   8
HETATM    8  O8  UNL     1     -35.505   4.642   4.384  1.00 20.00    -0.391 OA
HETATM    9  H18 UNL     1     -36.353   4.878   4.798  1.00 20.00     0.210 HD
ENDBRANCH   6   8
TORSDOF 1
