REMARK  0 active torsions:
REMARK  status: ('A' for Active; 'I' for Inactive)
ROOT
HETATM    1  C1  UNL     1     -33.498   7.479   3.677  1.00 20.00    -0.082 C 
HETATM    2  C2  UNL     1     -34.098   8.030   4.744  1.00 20.00     0.015 C 
HETATM    3  C3  UNL     1     -32.676   6.215   3.792  1.00 20.00     0.038 C 
HETATM    4  C4  UNL     1     -34.216   6.986   1.372  1.00 20.00     0.018 C 
HETATM    5  C5  UNL     1     -31.897   6.405   0.713  1.00 20.00     0.173 C 
HETATM    6  C6  UNL     1     -33.638   8.071   2.281  1.00 20.00     0.043 C 
HETATM    7  C7  UNL     1     -33.206   5.838   1.288  1.00 20.00     0.014 C 
HETATM    8  C8  UNL     1     -33.000   5.187   2.686  1.00 20.00    -0.009 C 
HETATM    9  C9  UNL     1     -32.273   8.563   1.745  1.00 20.00     0.125 C 
HETATM   10  C10 UNL     1     -34.220   4.344   3.086  1.00 20.00     0.011 C 
HETATM   11  C11 UNL     1     -32.402   9.445   0.503  1.00 20.00     0.040 C 
HETATM   12  O12 UNL     1     -31.367   7.482   1.484  1.00 20.00    -0.385 OA
ENDROOT
TORSDOF 0
