REMARK  0 active torsions:
REMARK  status: ('A' for Active; 'I' for Inactive)
ROOT
HETATM    1  C1  UNL     1     -32.184   5.921   1.553  1.00 20.00    -0.082 C 
HETATM    2  C2  UNL     1     -31.494   5.090   0.756  1.00 20.00     0.015 C 
HETATM    3  C3  UNL     1     -31.569   7.187   2.105  1.00 20.00     0.038 C 
HETATM    4  C4  UNL     1     -34.454   6.880   1.468  1.00 20.00     0.018 C 
HETATM    5  C5  UNL     1     -34.212   7.790   3.764  1.00 20.00     0.173 C 
HETATM    6  C6  UNL     1     -33.639   5.663   1.914  1.00 20.00     0.043 C 
HETATM    7  C7  UNL     1     -33.985   8.096   2.273  1.00 20.00     0.014 C 
HETATM    8  C8  UNL     1     -32.494   8.415   1.961  1.00 20.00    -0.009 C 
HETATM    9  C9  UNL     1     -33.879   5.443   3.427  1.00 20.00     0.125 C 
HETATM   10  C10 UNL     1     -32.345   9.033   0.563  1.00 20.00     0.011 C 
HETATM   11  C11 UNL     1     -33.088   4.267   3.990  1.00 20.00     0.040 C 
HETATM   12  O12 UNL     1     -33.540   6.606   4.193  1.00 20.00    -0.385 OA
ENDROOT
TORSDOF 0
