REMARK  1 active torsions:
REMARK  status: ('A' for Active; 'I' for Inactive)
REMARK    1  A    between atoms: C6_6  and  O10_10 
ROOT
HETATM    1  C1  UNL     1     -34.328   7.593   4.145  1.00 20.00     0.003 C 
HETATM    2  C2  UNL     1     -34.919   6.287   3.585  1.00 20.00     0.032 C 
HETATM    3  C3  UNL     1     -32.904   7.920   3.693  1.00 20.00     0.010 C 
HETATM    4  C4  UNL     1     -31.675   6.465   1.935  1.00 20.00     0.017 A 
HETATM    5  C5  UNL     1     -33.150   6.174   1.831  1.00 20.00     0.023 A 
HETATM    6  C6  UNL     1     -33.925   5.386   2.847  1.00 20.00     0.125 C 
HETATM    7  C7  UNL     1     -32.678   7.554   2.245  1.00 20.00    -0.038 A 
HETATM    8  C8  UNL     1     -32.847   8.677   1.261  1.00 20.00     0.015 C 
ENDROOT
BRANCH   6   9
HETATM    9  O10 UNL     1     -33.071   4.705   3.761  1.00 20.00    -0.390 OA
HETATM   10  C9  UNL     1     -33.716   3.574   4.328  1.00 20.00     0.202 C 
ENDBRANCH   6   9
TORSDOF 1
