REMARK  1 active torsions:
REMARK  status: ('A' for Active; 'I' for Inactive)
REMARK    1  A    between atoms: C6_6  and  O10_10 
ROOT
HETATM    1  C1  UNL     1     -32.173   5.857   1.279  1.00 20.00     0.003 C 
HETATM    2  C2  UNL     1     -33.493   5.685   2.049  1.00 20.00     0.032 C 
HETATM    3  C3  UNL     1     -31.360   7.091   1.684  1.00 20.00     0.010 C 
HETATM    4  C4  UNL     1     -32.389   8.970   3.167  1.00 20.00     0.017 A 
HETATM    5  C5  UNL     1     -33.495   8.091   2.649  1.00 20.00     0.023 A 
HETATM    6  C6  UNL     1     -33.694   6.700   3.178  1.00 20.00     0.125 C 
HETATM    7  C7  UNL     1     -32.251   8.307   1.814  1.00 20.00    -0.038 A 
HETATM    8  C8  UNL     1     -32.365   9.161   0.583  1.00 20.00     0.015 C 
ENDROOT
BRANCH   6   9
HETATM    9  O10 UNL     1     -35.011   6.580   3.704  1.00 20.00    -0.390 OA
HETATM   10  C9  UNL     1     -35.106   5.492   4.608  1.00 20.00     0.202 C 
ENDBRANCH   6   9
TORSDOF 1
