REMARK  0 active torsions:
REMARK  status: ('A' for Active; 'I' for Inactive)
ROOT
HETATM    1  C1  UNL     1     -32.407   8.179   2.008  1.00 20.00    -0.029 C 
HETATM    2  C2  UNL     1     -32.291   7.027   1.328  1.00 20.00    -0.014 C 
HETATM    3  C3  UNL     1     -33.286   5.478   3.107  1.00 20.00     0.143 C 
HETATM    4  C4  UNL     1     -33.071   8.407   3.332  1.00 20.00     0.032 C 
HETATM    5  C5  UNL     1     -34.675   6.942   4.751  1.00 20.00     0.018 A 
HETATM    6  C6  UNL     1     -34.517   6.247   3.424  1.00 20.00     0.061 A 
HETATM    7  C7  UNL     1     -34.404   7.747   3.511  1.00 20.00     0.001 A 
HETATM    8  C8  UNL     1     -32.744   5.620   1.673  1.00 20.00     0.031 C 
HETATM    9  C9  UNL     1     -33.826   5.178   0.674  1.00 20.00     0.027 C 
HETATM   10  C10 UNL     1     -31.530   4.681   1.521  1.00 20.00     0.027 C 
HETATM   11  O11 UNL     1     -32.767   4.781   3.972  1.00 20.00    -0.296 OA
ENDROOT
TORSDOF 0
