REMARK  4 active torsions:
REMARK  status: ('A' for Active; 'I' for Inactive)
REMARK    1  A    between atoms: C1_1  and  C7_7 
REMARK    2  A    between atoms: C7_7  and  N10_10 
REMARK    3  A    between atoms: C8_8  and  C9_9 
REMARK    4  A    between atoms: C8_8  and  N10_10 
ROOT
HETATM    1  C2  UNL     1     -32.954   5.403   1.232  1.00 20.00     0.043 C 
HETATM    2  C8  UNL     1     -33.579   6.733   1.659  1.00 20.00     0.226 C 
ENDROOT
BRANCH   2   3
HETATM    3  C9  UNL     1     -33.874   6.866   3.189  1.00 20.00    -0.021 C 
HETATM    4  C3  UNL     1     -35.285   6.369   3.554  1.00 20.00     0.016 C 
HETATM    5  C4  UNL     1     -32.846   6.059   4.007  1.00 20.00     0.016 C 
HETATM    6  C5  UNL     1     -33.752   8.346   3.617  1.00 20.00     0.016 C 
ENDBRANCH   2   3
BRANCH   2   7
HETATM    7  N10 UNL     1     -32.746   7.818   1.183  1.00 20.00     0.095 N 
HETATM    8  C6  UNL     1     -31.323   7.492   1.333  1.00 20.00     0.310 C 
BRANCH   7   9
HETATM    9  C7  UNL     1     -33.041   8.130  -0.220  1.00 20.00     0.341 C 
BRANCH   9  10
HETATM   10  C1  UNL     1     -32.615   9.545  -0.491  1.00 20.00     0.261 C 
HETATM   11  O11 UNL     1     -32.611  10.413   0.378  1.00 20.00    -0.305 OA
ENDBRANCH   9  10
ENDBRANCH   7   9
ENDBRANCH   2   7
TORSDOF 4
