REMARK  4 active torsions:
REMARK  status: ('A' for Active; 'I' for Inactive)
REMARK    1  A    between atoms: C1_1  and  C3_3 
REMARK    2  A    between atoms: C3_3  and  N6_6 
REMARK    3  A    between atoms: C4_4  and  C5_5 
REMARK    4  A    between atoms: C4_4  and  N6_6 
ROOT
HETATM    1  C4  UNL     1     -32.920   6.457   3.596  1.00 20.00     0.389 C 
ENDROOT
BRANCH   1   2
HETATM    2  C5  UNL     1     -32.737   7.007   2.204  1.00 20.00     0.413 C 
HETATM    3  F8  UNL     1     -31.586   7.711   2.122  1.00 20.00    -0.169 F 
HETATM    4  F9  UNL     1     -32.679   6.019   1.287  1.00 20.00    -0.169 F 
HETATM    5  F10 UNL     1     -33.748   7.835   1.865  1.00 20.00    -0.169 F 
ENDBRANCH   1   2
BRANCH   1   6
HETATM    6  N6  UNL     1     -34.161   5.692   3.715  1.00 20.00     0.099 N 
HETATM    7  C2  UNL     1     -35.297   6.590   3.924  1.00 20.00     0.310 C 
BRANCH   6   8
HETATM    8  C3  UNL     1     -34.064   4.727   4.809  1.00 20.00     0.341 C 
BRANCH   8   9
HETATM    9  C1  UNL     1     -33.244   3.559   4.340  1.00 20.00     0.261 C 
HETATM   10  O7  UNL     1     -32.564   2.879   5.105  1.00 20.00    -0.305 OA
ENDBRANCH   8   9
ENDBRANCH   6   8
ENDBRANCH   1   6
TORSDOF 4
