REMARK  2 active torsions:
REMARK  status: ('A' for Active; 'I' for Inactive)
REMARK    1  A    between atoms: C2_2  and  C8_8 
REMARK    2  A    between atoms: C8_8  and  O9_9 
ROOT
HETATM    1  C3  UNL     1     -33.127   5.917   0.540  1.00 20.00     0.012 C 
HETATM    2  C4  UNL     1     -31.509   5.475   1.779  1.00 20.00     0.012 C 
HETATM    3  C5  UNL     1     -33.065   7.172   2.651  1.00 20.00     0.047 C 
HETATM    4  C6  UNL     1     -33.014   5.746   2.088  1.00 20.00    -0.010 C 
HETATM    5  C7  UNL     1     -31.766   6.656   0.781  1.00 20.00     0.024 C 
HETATM    6  C8  UNL     1     -32.094   7.859   1.673  1.00 20.00     0.079 C 
ENDROOT
BRANCH   6   7
HETATM    7  C2  UNL     1     -32.676   8.967   0.863  1.00 20.00     0.001 C 
HETATM    8  C1  UNL     1     -31.987   9.679  -0.036  1.00 20.00     0.010 C 
ENDBRANCH   6   7
BRANCH   6   9
HETATM    9  O9  UNL     1     -30.918   8.335   2.312  1.00 20.00    -0.385 OA
HETATM   10  H21 UNL     1     -31.186   9.079   2.876  1.00 20.00     0.211 HD
ENDBRANCH   6   9
TORSDOF 2
