REMARK  1 active torsions:
REMARK  status: ('A' for Active; 'I' for Inactive)
REMARK    1  A    between atoms: C4_4  and  C8_8 
ROOT
HETATM    1  C1  UNL     1     -33.268   8.296   3.045  1.00 20.00     0.012 A 
HETATM    2  C2  UNL     1     -33.766   7.188   3.722  1.00 20.00     0.040 A 
HETATM    3  C3  UNL     1     -32.119   6.818   1.578  1.00 20.00     0.125 A 
HETATM    4  C4  UNL     1     -32.429   8.116   1.951  1.00 20.00    -0.036 A 
HETATM    5  C5  UNL     1     -33.397   5.932   3.269  1.00 20.00     0.102 A 
HETATM    6  N9  UNL     1     -32.584   5.717   2.211  1.00 20.00    -0.253 NA
HETATM    7 BR10 UNL     1     -34.065   4.404   4.179  1.00 20.00    -0.029 Br
ENDROOT
BRANCH   4   8
HETATM    8  C8  UNL     1     -31.882   9.280   1.205  1.00 20.00     0.020 A 
HETATM    9  C6  UNL     1     -32.833  10.304   0.640  1.00 20.00     0.010 A 
HETATM   10  C7  UNL     1     -32.109   9.375  -0.283  1.00 20.00     0.010 A 
ENDBRANCH   4   8
TORSDOF 1
