REMARK  1 active torsions:
REMARK  status: ('A' for Active; 'I' for Inactive)
REMARK    1  A    between atoms: C10_10  and  O11_11 
ROOT
HETATM    1  C1  UNL     1     -32.329   8.414   1.279  1.00 20.00     0.011 A 
HETATM    2  C2  UNL     1     -33.565   5.415   0.996  1.00 20.00     0.013 A 
HETATM    3  C3  UNL     1     -33.648   8.134   4.685  1.00 20.00     0.013 A 
HETATM    4  C4  UNL     1     -31.566   7.138   1.520  1.00 20.00    -0.005 A 
HETATM    5  C5  UNL     1     -31.767   8.151   2.649  1.00 20.00    -0.005 A 
HETATM    6  C6  UNL     1     -32.172   5.718   1.503  1.00 20.00    -0.003 A 
HETATM    7  C7  UNL     1     -32.507   7.644   3.862  1.00 20.00    -0.003 A 
HETATM    8  C8  UNL     1     -33.212   5.049   2.413  1.00 20.00     0.019 A 
HETATM    9  C9  UNL     1     -33.913   7.143   3.588  1.00 20.00     0.019 A 
HETATM   10  C10 UNL     1     -33.952   5.659   3.586  1.00 20.00     0.127 C 
ENDROOT
BRANCH  10  11
HETATM   11  O11 UNL     1     -35.309   5.220   3.545  1.00 20.00    -0.395 OA
HETATM   12  H25 UNL     1     -35.286   4.253   3.606  1.00 20.00     0.210 HD
ENDBRANCH  10  11
TORSDOF 1
