REMARK  1 active torsions:
REMARK  status: ('A' for Active; 'I' for Inactive)
REMARK    1  A    between atoms: C5_5  and  C8_8 
ROOT
HETATM    1  C1  UNL     1     -33.505   7.590   3.676  1.00 20.00     0.047 C 
HETATM    2  C2  UNL     1     -32.562   8.053   2.846  1.00 20.00    -0.009 C 
HETATM    3  C3  UNL     1     -34.356   6.444   3.277  1.00 20.00     0.149 C 
HETATM    4  C6  UNL     1     -34.073   5.759   1.961  1.00 20.00     0.084 C 
HETATM    5  C7  UNL     1     -33.530   6.746   0.935  1.00 20.00     0.025 C 
HETATM    6  C8  UNL     1     -32.302   7.533   1.448  1.00 20.00    -0.003 C 
HETATM    7  C11 UNL     1     -31.048   6.644   1.473  1.00 20.00     0.024 C 
HETATM    8  O12 UNL     1     -35.227   6.035   4.044  1.00 20.00    -0.293 OA
ENDROOT
BRANCH   6   9
HETATM    9  C5  UNL     1     -32.046   8.680   0.499  1.00 20.00    -0.076 C 
HETATM   10  C4  UNL     1     -32.610   9.887   0.695  1.00 20.00    -0.027 C 
HETATM   11  C9  UNL     1     -32.461  11.098  -0.133  1.00 20.00     0.036 C 
HETATM   12  C10 UNL     1     -31.131   8.362  -0.650  1.00 20.00     0.044 C 
ENDBRANCH   6   9
TORSDOF 1
