REMARK  1 active torsions:
REMARK  status: ('A' for Active; 'I' for Inactive)
REMARK    1  A    between atoms: C3_3  and  C7_7 
ROOT
HETATM    1  C1  UNL     1     -33.112   8.081   2.707  1.00 20.00     0.034 A 
HETATM    2  C2  UNL     1     -32.196   6.880   0.939  1.00 20.00     0.058 A 
HETATM    3  C3  UNL     1     -32.412   8.135   1.466  1.00 20.00    -0.046 A 
HETATM    4  C4  UNL     1     -33.404   6.787   3.080  1.00 20.00     0.051 A 
HETATM    5  S8  UNL     1     -32.835   5.645   1.938  1.00 20.00    -0.094 SA
HETATM    6 BR9  UNL     1     -34.326   6.311   4.671  1.00 20.00    -0.043 Br
ENDROOT
BRANCH   3   7
HETATM    7  C7  UNL     1     -31.957   9.431   0.801  1.00 20.00     0.019 A 
HETATM    8  C5  UNL     1     -32.984  10.509   0.512  1.00 20.00     0.010 A 
HETATM    9  C6  UNL     1     -32.400   9.723  -0.620  1.00 20.00     0.010 A 
ENDBRANCH   3   7
TORSDOF 1
