REMARK  0 active torsions:
REMARK  status: ('A' for Active; 'I' for Inactive)
ROOT
HETATM    1  C1  UNL     1     -33.881   7.758   3.311  1.00 20.00     0.069 C 
HETATM    2  C2  UNL     1     -31.452   6.314   1.863  1.00 20.00     0.007 C 
HETATM    3  C3  UNL     1     -32.961   6.200   1.620  1.00 20.00     0.025 C 
HETATM    4  C4  UNL     1     -31.133   7.808   1.955  1.00 20.00     0.070 C 
HETATM    5  C5  UNL     1     -32.859  10.640   0.846  1.00 20.00     0.197 C 
HETATM    6  C6  UNL     1     -32.188   9.943  -0.305  1.00 20.00     0.197 C 
HETATM    7  C7  UNL     1     -33.535   7.595   1.888  1.00 20.00     0.155 C 
HETATM    8  C8  UNL     1     -32.388   8.512   1.445  1.00 20.00     0.180 C 
HETATM    9  N9  UNL     1     -34.154   7.887   4.432  1.00 20.00    -0.197 NA
HETATM   10  O10 UNL     1     -32.494   9.838   1.967  1.00 20.00    -0.352 OA
HETATM   11  O11 UNL     1     -32.361   8.561   0.006  1.00 20.00    -0.352 OA
ENDROOT
TORSDOF 0
