REMARK  0 active torsions:
REMARK  status: ('A' for Active; 'I' for Inactive)
ROOT
HETATM    1  C1  UNL     1     -34.402   5.973   3.871  1.00 20.00     0.136 C 
HETATM    2  C2  UNL     1     -33.413   4.723   1.711  1.00 20.00     0.018 A 
HETATM    3  C3  UNL     1     -33.256   7.916   5.109  1.00 20.00     0.018 A 
HETATM    4  C4  UNL     1     -32.471   8.688   1.225  1.00 20.00     0.011 A 
HETATM    5  C5  UNL     1     -33.339   5.488   2.983  1.00 20.00     0.060 A 
HETATM    6  C6  UNL     1     -34.371   7.423   4.227  1.00 20.00     0.060 A 
HETATM    7  C7  UNL     1     -33.375   6.213   1.629  1.00 20.00     0.002 A 
HETATM    8  C8  UNL     1     -33.381   8.463   3.707  1.00 20.00     0.002 A 
HETATM    9  C9  UNL     1     -32.261   7.239   1.555  1.00 20.00    -0.005 A 
HETATM   10  C10 UNL     1     -32.252   8.293   2.666  1.00 20.00    -0.005 A 
HETATM   11  O11 UNL     1     -35.254   5.221   4.325  1.00 20.00    -0.297 OA
ENDROOT
TORSDOF 0
