REMARK  2 active torsions:
REMARK  status: ('A' for Active; 'I' for Inactive)
REMARK    1  A    between atoms: C3_3  and  C6_6 
REMARK    2  A    between atoms: C3_3  and  O10_10 
ROOT
HETATM    1  C1  UNL     1     -31.878   7.758   1.571  1.00 20.00    -0.003 C 
HETATM    2  C2  UNL     1     -31.907   7.732   2.909  1.00 20.00     0.132 C 
HETATM    3  C4  UNL     1     -32.653   6.777   0.750  1.00 20.00     0.032 C 
HETATM    4  C5  UNL     1     -33.150   5.623   1.619  1.00 20.00     0.046 C 
HETATM    5  C6  UNL     1     -33.656   6.161   2.954  1.00 20.00     0.227 C 
HETATM    6  O9  UNL     1     -32.654   6.880   3.681  1.00 20.00    -0.348 OA
ENDROOT
BRANCH   5   7
HETATM    7  C3  UNL     1     -34.035   5.040   3.865  1.00 20.00     0.288 C 
HETATM    8  O8  UNL     1     -35.147   4.904   4.358  1.00 20.00    -0.262 OA
BRANCH   7   9
HETATM    9  O10 UNL     1     -32.962   4.220   4.050  1.00 20.00    -0.324 OA
HETATM   10  C7  UNL     1     -33.187   3.097   4.908  1.00 20.00     0.213 C 
ENDBRANCH   7   9
ENDBRANCH   5   7
TORSDOF 2
