REMARK  1 active torsions:
REMARK  status: ('A' for Active; 'I' for Inactive)
REMARK    1  A    between atoms: C4_4  and  C7_7 
ROOT
HETATM    1  C1  UNL     1     -35.284   5.265   4.385  1.00 20.00     0.056 A 
HETATM    2  C2  UNL     1     -35.304   6.376   3.654  1.00 20.00     0.010 A 
HETATM    3  C3  UNL     1     -34.107   4.521   3.949  1.00 20.00     0.157 A 
HETATM    4  C4  UNL     1     -34.166   6.427   2.709  1.00 20.00     0.157 A 
HETATM    5  N8  UNL     1     -33.691   3.388   4.385  1.00 20.00    -0.278 NA
HETATM    6  O9  UNL     1     -33.460   5.205   2.964  1.00 20.00    -0.325 OA
HETATM    7  H20 UNL     1     -32.836   3.119   3.884  1.00 20.00     0.189 HD
ENDROOT
BRANCH   4   8
HETATM    8  C7  UNL     1     -33.238   7.605   2.955  1.00 20.00     0.011 C 
HETATM    9  C5  UNL     1     -32.669   7.563   4.375  1.00 20.00     0.012 C 
HETATM   10  C6  UNL     1     -32.103   7.627   1.929  1.00 20.00     0.012 C 
ENDBRANCH   4   8
TORSDOF 1
