REMARK  1 active torsions:
REMARK  status: ('A' for Active; 'I' for Inactive)
REMARK    1  A    between atoms: C9_9  and  C10_10 
ROOT
HETATM    1  C1  UNL     1     -31.784   9.448   0.523  1.00 20.00     0.063 C 
HETATM    2  C10 UNL     1     -31.180   8.591   1.524  1.00 20.00     0.163 C 
HETATM    3  N11 UNL     1     -32.238  10.154  -0.278  1.00 20.00    -0.197 NA
ENDROOT
BRANCH   2   4
HETATM    4  C9  UNL     1     -32.175   7.484   1.884  1.00 20.00    -0.033 A 
HETATM    5  C6  UNL     1     -32.445   6.160   1.350  1.00 20.00     0.021 A 
HETATM    6  C7  UNL     1     -33.407   6.007   2.267  1.00 20.00    -0.025 A 
HETATM    7  C4  UNL     1     -34.459   5.170   2.858  1.00 20.00     0.012 A 
HETATM    8  C8  UNL     1     -33.142   7.296   2.789  1.00 20.00    -0.019 A 
HETATM    9  C2  UNL     1     -35.151   5.675   3.902  1.00 20.00     0.001 A 
HETATM   10  C3  UNL     1     -34.877   7.011   4.443  1.00 20.00     0.001 A 
HETATM   11  C5  UNL     1     -33.918   7.808   3.925  1.00 20.00     0.013 A 
ENDBRANCH   2   4
TORSDOF 1
