REMARK  0 active torsions:
REMARK  status: ('A' for Active; 'I' for Inactive)
ROOT
HETATM    1  C1  UNL     1     -32.698   8.567   2.647  1.00 20.00     0.050 C 
HETATM    2  C2  UNL     1     -33.303   7.560   3.300  1.00 20.00     0.003 C 
HETATM    3  C3  UNL     1     -32.389   8.529   1.186  1.00 20.00     0.027 C 
HETATM    4  C4  UNL     1     -32.597   5.134   0.685  1.00 20.00     0.056 A 
HETATM    5  C5  UNL     1     -31.645   6.251   1.038  1.00 20.00     0.133 A 
HETATM    6  C6  UNL     1     -32.481   5.606   2.102  1.00 20.00     0.108 A 
HETATM    7  C7  UNL     1     -33.790   7.785   4.709  1.00 20.00     0.068 C 
HETATM    8  C8  UNL     1     -32.606   9.837   0.452  1.00 20.00     0.070 C 
HETATM    9  N9  UNL     1     -31.957   7.550   0.462  1.00 20.00    -0.287 NA
HETATM   10  N10 UNL     1     -33.556   6.301   2.795  1.00 20.00    -0.387 N 
HETATM   11  H22 UNL     1     -34.241   5.753   3.308  1.00 20.00     0.159 HD
ENDROOT
TORSDOF 0
