REMARK  1 active torsions:
REMARK  status: ('A' for Active; 'I' for Inactive)
REMARK    1  A    between atoms: C10_10  and  O12_12 
ROOT
HETATM    1  C1  UNL     1     -35.070   6.780   3.568  1.00 20.00     0.011 A 
HETATM    2  C2  UNL     1     -33.699   5.215   0.973  1.00 20.00     0.013 A 
HETATM    3  C3  UNL     1     -32.873   9.268   3.359  1.00 20.00     0.013 A 
HETATM    4  C4  UNL     1     -34.054   5.670   3.582  1.00 20.00    -0.005 A 
HETATM    5  C5  UNL     1     -33.791   6.959   4.341  1.00 20.00    -0.005 A 
HETATM    6  C6  UNL     1     -33.206   5.214   2.399  1.00 20.00    -0.003 A 
HETATM    7  C7  UNL     1     -32.656   7.914   3.989  1.00 20.00    -0.003 A 
HETATM    8  C8  UNL     1     -32.552   6.105   1.363  1.00 20.00     0.020 A 
HETATM    9  C9  UNL     1     -32.123   8.207   2.602  1.00 20.00     0.020 A 
HETATM   10  C10 UNL     1     -32.721   7.594   1.372  1.00 20.00     0.129 C 
ENDROOT
BRANCH  10  11
HETATM   11  O12 UNL     1     -32.061   8.126   0.220  1.00 20.00    -0.390 OA
HETATM   12  C11 UNL     1     -32.543   9.422  -0.094  1.00 20.00     0.202 C 
ENDBRANCH  10  11
TORSDOF 1
