REMARK  3 active torsions:
REMARK  status: ('A' for Active; 'I' for Inactive)
REMARK    1  A    between atoms: C6_6  and  C7_7 
REMARK    2  A    between atoms: C8_8  and  C10_10 
REMARK    3  A    between atoms: C9_9  and  C11_11 
ROOT
HETATM    1  C1  UNL     1     -31.051   7.252   1.133  1.00 20.00    -0.021 C 
HETATM    2  C2  UNL     1     -30.945   7.904   2.318  1.00 20.00    -0.020 C 
HETATM    3  C5  UNL     1     -33.465   6.991   1.398  1.00 20.00    -0.003 C 
HETATM    4  C6  UNL     1     -33.311   7.445   2.664  1.00 20.00     0.024 C 
HETATM    5  C8  UNL     1     -32.410   7.507   0.416  1.00 20.00     0.039 C 
HETATM    6  C9  UNL     1     -32.240   8.559   2.805  1.00 20.00     0.056 C 
ENDROOT
BRANCH   4   7
HETATM    7  C7  UNL     1     -34.190   7.006   3.805  1.00 20.00     0.205 C 
HETATM    8  O12 UNL     1     -34.657   5.833   3.711  1.00 20.00    -0.644 OA
HETATM    9  O13 UNL     1     -34.357   7.862   4.723  1.00 20.00    -0.644 OA
ENDBRANCH   4   7
BRANCH   6  10
HETATM   10  C11 UNL     1     -32.841   9.546   1.779  1.00 20.00     0.029 C 
HETATM   11  C4  UNL     1     -32.596  10.870   1.105  1.00 20.00    -0.024 C 
HETATM   12  C3  UNL     1     -33.089  10.276  -0.051  1.00 20.00    -0.024 C 
HETATM   13  C10 UNL     1     -32.324   9.047   0.364  1.00 20.00     0.028 C 
ENDBRANCH   6  10
TORSDOF 3
