REMARK  2 active torsions:
REMARK  status: ('A' for Active; 'I' for Inactive)
REMARK    1  A    between atoms: C7_7  and  C9_9 
REMARK    2  A    between atoms: C8_8  and  C9_9 
ROOT
HETATM    1  C1  UNL     1     -32.340  11.109  -0.622  1.00 20.00     0.012 C 
HETATM    2  C2  UNL     1     -32.743  10.172   0.011  1.00 20.00    -0.117 C 
HETATM    3  C8  UNL     1     -33.241   9.025   0.783  1.00 20.00     0.093 C 
ENDROOT
BRANCH   3   4
HETATM    4  C9  UNL     1     -32.115   8.397   1.586  1.00 20.00     0.017 C 
BRANCH   4   5
HETATM    5  C7  UNL     1     -32.616   7.209   2.391  1.00 20.00    -0.006 C 
HETATM    6  C5  UNL     1     -33.747   7.577   3.354  1.00 20.00     0.082 C 
HETATM    7  C3  UNL     1     -34.463   6.259   3.504  1.00 20.00     0.127 C 
HETATM    8  C4  UNL     1     -34.010   5.244   2.487  1.00 20.00     0.079 C 
HETATM    9  O10 UNL     1     -35.314   6.039   4.356  1.00 20.00    -0.298 OA
HETATM   10  C6  UNL     1     -33.218   6.110   1.515  1.00 20.00     0.012 C 
ENDBRANCH   4   5
ENDBRANCH   3   4
TORSDOF 2
