REMARK  0 active torsions:
REMARK  status: ('A' for Active; 'I' for Inactive)
ROOT
HETATM    1  C1  UNL     1     -34.381   6.716   3.357  1.00 20.00     0.064 C 
HETATM    2  C2  UNL     1     -31.905   5.460   1.347  1.00 20.00    -0.030 C 
HETATM    3  C3  UNL     1     -32.987   5.462   0.562  1.00 20.00    -0.030 C 
HETATM    4  C4  UNL     1     -31.424   6.612   2.164  1.00 20.00     0.037 C 
HETATM    5  C5  UNL     1     -33.905   6.616   0.325  1.00 20.00     0.038 C 
HETATM    6  C6  UNL     1     -31.729  10.002   0.258  1.00 20.00     0.001 C 
HETATM    7  C7  UNL     1     -32.980   9.645  -0.535  1.00 20.00     0.001 C 
HETATM    8  C8  UNL     1     -31.112   8.769   0.904  1.00 20.00     0.011 C 
HETATM    9  C9  UNL     1     -34.061   9.130   0.405  1.00 20.00     0.012 C 
HETATM   10  C10 UNL     1     -32.732   8.629   3.006  1.00 20.00     0.030 C 
HETATM   11  C11 UNL     1     -34.091   7.954   2.657  1.00 20.00     0.103 C 
HETATM   12  C12 UNL     1     -32.099   7.944   1.748  1.00 20.00    -0.027 C 
HETATM   13  C13 UNL     1     -33.579   7.860   1.164  1.00 20.00    -0.013 C 
HETATM   14  N14 UNL     1     -34.611   5.726   3.916  1.00 20.00    -0.197 NA
ENDROOT
TORSDOF 0
