REMARK  1 active torsions:
REMARK  status: ('A' for Active; 'I' for Inactive)
REMARK    1  A    between atoms: C10_10  and  O11_11 
ROOT
HETATM    1  C1  UNL     1     -31.464   7.291   1.691  1.00 20.00    -0.021 C 
HETATM    2  C2  UNL     1     -32.176   8.093   4.076  1.00 20.00    -0.021 C 
HETATM    3  C3  UNL     1     -32.088   6.127   1.406  1.00 20.00    -0.025 C 
HETATM    4  C4  UNL     1     -33.350   7.758   4.654  1.00 20.00    -0.022 C 
HETATM    5  C5  UNL     1     -34.641   5.433   2.307  1.00 20.00     0.041 C 
HETATM    6  C6  UNL     1     -32.291   8.198   2.581  1.00 20.00     0.035 C 
HETATM    7  C7  UNL     1     -33.249   6.012   2.315  1.00 20.00     0.016 C 
HETATM    8  C8  UNL     1     -34.467   7.560   3.649  1.00 20.00     0.042 C 
HETATM    9  C9  UNL     1     -33.620   7.508   2.399  1.00 20.00     0.015 C 
HETATM   10  C10 UNL     1     -35.255   6.217   3.520  1.00 20.00     0.127 C 
ENDROOT
BRANCH  10  11
HETATM   11  O11 UNL     1     -35.146   5.444   4.706  1.00 20.00    -0.395 OA
HETATM   12  H23 UNL     1     -35.636   4.620   4.550  1.00 20.00     0.210 HD
ENDBRANCH  10  11
TORSDOF 1
