REMARK  1 active torsions:
REMARK  status: ('A' for Active; 'I' for Inactive)
REMARK    1  A    between atoms: C4_4  and  C11_11 
ROOT
HETATM    1  C1  UNL     1     -35.070   7.211   3.552  1.00 20.00     0.027 A 
HETATM    2  C2  UNL     1     -33.249   5.641   3.467  1.00 20.00     0.034 A 
HETATM    3  C3  UNL     1     -35.827   6.218   4.151  1.00 20.00     0.117 A 
HETATM    4  C4  UNL     1     -33.757   6.909   3.206  1.00 20.00    -0.047 A 
HETATM    5  C5  UNL     1     -34.088   4.719   4.070  1.00 20.00     0.030 A 
HETATM    6  C12 UNL     1     -33.577   3.348   4.365  1.00 20.00     0.070 C 
HETATM    7  N13 UNL     1     -35.369   4.975   4.420  1.00 20.00    -0.266 NA
ENDROOT
BRANCH   4   8
HETATM    8  C11 UNL     1     -32.882   7.962   2.545  1.00 20.00     0.041 C 
HETATM    9  C7  UNL     1     -32.316   7.497   1.223  1.00 20.00    -0.021 C 
HETATM   10  C6  UNL     1     -32.243   8.283   0.140  1.00 20.00    -0.030 C 
HETATM   11  C8  UNL     1     -32.675   9.719   0.135  1.00 20.00     0.027 C 
HETATM   12  C9  UNL     1     -32.877  10.288   1.541  1.00 20.00     0.005 C 
HETATM   13  C10 UNL     1     -33.635   9.304   2.430  1.00 20.00     0.013 C 
ENDBRANCH   4   8
TORSDOF 1
