REMARK  0 active torsions:
REMARK  status: ('A' for Active; 'I' for Inactive)
ROOT
HETATM    1  C1  UNL     1     -34.153   4.294   3.853  1.00 20.00    -0.023 C 
HETATM    2  C2  UNL     1     -34.330   5.245   4.838  1.00 20.00    -0.013 C 
HETATM    3  C3  UNL     1     -33.493   7.580   3.535  1.00 20.00     0.140 C 
HETATM    4  C4  UNL     1     -32.808   7.405   2.154  1.00 20.00     0.088 C 
HETATM    5  C5  UNL     1     -33.261   5.276   3.161  1.00 20.00     0.035 C 
HETATM    6  C6  UNL     1     -34.359   6.310   3.737  1.00 20.00     0.042 C 
HETATM    7  C7  UNL     1     -32.992   5.872   1.789  1.00 20.00    -0.033 C 
HETATM    8  C8  UNL     1     -35.808   6.597   3.313  1.00 20.00     0.029 C 
HETATM    9  C9  UNL     1     -34.076   5.594   0.749  1.00 20.00     0.016 C 
HETATM   10  C10 UNL     1     -31.669   5.305   1.243  1.00 20.00     0.016 C 
HETATM   11  O11 UNL     1     -33.362   8.564   4.248  1.00 20.00    -0.297 OA
ENDROOT
TORSDOF 0
