REMARK  1 active torsions:
REMARK  status: ('A' for Active; 'I' for Inactive)
REMARK    1  A    between atoms: C3_3  and  C8_8 
ROOT
HETATM    1  C1  UNL     1     -33.211   7.508   3.089  1.00 20.00     0.147 C 
HETATM    2  C4  UNL     1     -32.426   5.263   1.439  1.00 20.00     0.007 C 
HETATM    3  C5  UNL     1     -31.555   6.527   1.588  1.00 20.00     0.022 C 
HETATM    4  C6  UNL     1     -33.757   7.116   0.867  1.00 20.00     0.027 C 
HETATM    5  C7  UNL     1     -33.863   5.796   1.646  1.00 20.00     0.002 C 
HETATM    6  C8  UNL     1     -32.595   7.645   1.705  1.00 20.00     0.038 C 
HETATM    7  C9  UNL     1     -34.113   6.274   3.116  1.00 20.00     0.018 C 
HETATM    8  C10 UNL     1     -35.570   6.681   3.352  1.00 20.00     0.023 C 
HETATM    9  C11 UNL     1     -33.667   5.280   4.186  1.00 20.00     0.023 C 
HETATM   10  O12 UNL     1     -32.998   8.240   4.045  1.00 20.00    -0.296 OA
ENDROOT
BRANCH   6  11
HETATM   11  C3  UNL     1     -32.132   9.016   1.397  1.00 20.00    -0.020 C 
HETATM   12  C2  UNL     1     -32.591   9.750   0.378  1.00 20.00     0.008 C 
ENDBRANCH   6  11
TORSDOF 1
