REMARK  0 active torsions:
REMARK  status: ('A' for Active; 'I' for Inactive)
ROOT
HETATM    1  C1  UNL     1     -32.837   8.482   4.707  1.00 20.00    -0.029 C 
HETATM    2  C2  UNL     1     -32.145   8.488   3.548  1.00 20.00    -0.014 C 
HETATM    3  C3  UNL     1     -33.201   6.506   2.106  1.00 20.00     0.143 C 
HETATM    4  C4  UNL     1     -34.089   7.727   5.092  1.00 20.00     0.032 C 
HETATM    5  C5  UNL     1     -35.089   5.571   3.776  1.00 20.00     0.018 A 
HETATM    6  C6  UNL     1     -33.718   6.003   3.383  1.00 20.00     0.061 A 
HETATM    7  C7  UNL     1     -34.702   7.007   3.951  1.00 20.00     0.001 A 
HETATM    8  C8  UNL     1     -32.303   7.769   2.200  1.00 20.00     0.031 C 
HETATM    9  C9  UNL     1     -32.842   8.795   1.188  1.00 20.00     0.027 C 
HETATM   10  C10 UNL     1     -30.902   7.306   1.753  1.00 20.00     0.027 C 
HETATM   11  O11 UNL     1     -33.463   5.924   1.060  1.00 20.00    -0.296 OA
ENDROOT
TORSDOF 0
