REMARK  3 active torsions:
REMARK  status: ('A' for Active; 'I' for Inactive)
REMARK    1  A    between atoms: C3_3  and  C7_7 
REMARK    2  A    between atoms: C6_6  and  N9_9 
REMARK    3  A    between atoms: C7_7  and  N9_9 
ROOT
HETATM    1  C1  UNL     1     -32.442   9.433   0.228  1.00 20.00     0.089 C 
HETATM    2  C6  UNL     1     -31.694   8.239   0.619  1.00 20.00     0.395 C 
HETATM    3  N8  UNL     1     -33.032  10.382  -0.085  1.00 20.00    -0.195 NA
ENDROOT
BRANCH   2   4
HETATM    4  N9  UNL     1     -32.443   7.455   1.614  1.00 20.00     0.100 N 
HETATM    5  C5  UNL     1     -31.933   6.074   1.633  1.00 20.00     0.311 C 
BRANCH   4   6
HETATM    6  C7  UNL     1     -32.373   8.057   2.916  1.00 20.00     0.300 C 
BRANCH   6   7
HETATM    7  C3  UNL     1     -33.530   7.589   3.738  1.00 20.00    -0.002 C 
HETATM    8  C2  UNL     1     -34.467   6.743   3.287  1.00 20.00    -0.033 C 
HETATM    9  C4  UNL     1     -35.621   6.268   4.106  1.00 20.00     0.036 C 
ENDBRANCH   6   7
ENDBRANCH   4   6
ENDBRANCH   2   4
TORSDOF 3
