REMARK  0 active torsions:
REMARK  status: ('A' for Active; 'I' for Inactive)
ROOT
HETATM    1  C1  UNL     1     -32.888   4.616   1.846  1.00 20.00    -0.017 C 
HETATM    2  C2  UNL     1     -31.747   5.135   1.291  1.00 20.00    -0.019 C 
HETATM    3  C3  UNL     1     -34.082   6.545   3.352  1.00 20.00     0.136 C 
HETATM    4  C4  UNL     1     -33.591   7.864   3.974  1.00 20.00     0.083 C 
HETATM    5  C5  UNL     1     -32.641   9.548  -0.263  1.00 20.00     0.000 C 
HETATM    6  C6  UNL     1     -32.285  10.193   1.081  1.00 20.00     0.000 C 
HETATM    7  C7  UNL     1     -32.313   8.064  -0.442  1.00 20.00     0.001 C 
HETATM    8  C8  UNL     1     -33.103   9.680   2.266  1.00 20.00     0.005 C 
HETATM    9  C9  UNL     1     -33.105   7.126   0.474  1.00 20.00     0.014 C 
HETATM   10  C10 UNL     1     -31.467   7.606   2.423  1.00 20.00     0.019 C 
HETATM   11  C11 UNL     1     -32.896   5.757   2.822  1.00 20.00     0.090 C 
HETATM   12  C12 UNL     1     -32.463   8.576   3.144  1.00 20.00    -0.007 C 
HETATM   13  C13 UNL     1     -32.243   6.555   1.633  1.00 20.00    -0.009 C 
HETATM   14  O14 UNL     1     -35.261   6.202   3.365  1.00 20.00    -0.297 OA
ENDROOT
TORSDOF 0
