REMARK  0 active torsions:
REMARK  status: ('A' for Active; 'I' for Inactive)
ROOT
HETATM    1  C1  UNL     1     -32.784   4.460   3.269  1.00 20.00     0.052 A 
HETATM    2  C2  UNL     1     -35.069   5.705   4.270  1.00 20.00     0.126 A 
HETATM    3  C3  UNL     1     -33.133   5.726   2.866  1.00 20.00    -0.043 A 
HETATM    4  C4  UNL     1     -34.278   6.359   3.365  1.00 20.00    -0.028 A 
HETATM    5  C5  UNL     1     -33.647   3.870   4.183  1.00 20.00     0.126 A 
HETATM    6  C6  UNL     1     -33.752   7.366   1.367  1.00 20.00     0.020 C 
HETATM    7  C7  UNL     1     -31.893   7.852   2.787  1.00 20.00     0.030 C 
HETATM    8  C8  UNL     1     -32.474   6.705   1.927  1.00 20.00     0.021 C 
HETATM    9  C9  UNL     1     -34.332   7.734   2.751  1.00 20.00     0.040 C 
HETATM   10  C10 UNL     1     -33.165   8.598   3.289  1.00 20.00     0.091 C 
HETATM   11  N11 UNL     1     -34.773   4.454   4.691  1.00 20.00    -0.248 NA
HETATM   12 CL12 UNL     1     -33.342   2.287   4.777  1.00 20.00    -0.062 Cl
HETATM   13 CL13 UNL     1     -33.190   8.812   5.050  1.00 20.00    -0.124 Cl
ENDROOT
TORSDOF 0
