REMARK  0 active torsions:
REMARK  status: ('A' for Active; 'I' for Inactive)
ROOT
HETATM    1  C1  UNL     1     -35.083   6.674   4.224  1.00 20.00    -0.021 C 
HETATM    2  C2  UNL     1     -34.123   4.179   3.454  1.00 20.00    -0.021 C 
HETATM    3  C3  UNL     1     -34.420   7.817   3.913  1.00 20.00    -0.018 C 
HETATM    4  C4  UNL     1     -33.055   4.048   2.608  1.00 20.00    -0.024 C 
HETATM    5  C5  UNL     1     -32.449   7.665   1.841  1.00 20.00     0.135 C 
HETATM    6  C6  UNL     1     -31.694   6.335   1.534  1.00 20.00     0.087 C 
HETATM    7  C7  UNL     1     -34.613   5.592   3.340  1.00 20.00     0.036 C 
HETATM    8  C8  UNL     1     -33.113   7.588   3.217  1.00 20.00     0.083 C 
HETATM    9  C9  UNL     1     -32.795   5.390   1.956  1.00 20.00     0.021 C 
HETATM   10  C10 UNL     1     -33.195   6.093   3.233  1.00 20.00     0.020 C 
HETATM   11  O11 UNL     1     -32.444   8.654   1.123  1.00 20.00    -0.297 OA
ENDROOT
TORSDOF 0
