REMARK  0 active torsions:
REMARK  status: ('A' for Active; 'I' for Inactive)
ROOT
HETATM    1  C1  UNL     1     -32.690   8.042   2.683  1.00 20.00     0.005 A 
HETATM    2  C2  UNL     1     -33.252   6.820   2.598  1.00 20.00     0.107 A 
HETATM    3  C3  UNL     1     -31.933   8.033   1.347  1.00 20.00     0.132 A 
HETATM    4  C4  UNL     1     -32.309   9.146   0.381  1.00 20.00     0.031 C 
HETATM    5  O5  UNL     1     -33.846   6.369   0.307  1.00 20.00    -0.223 OA
HETATM    6  O6  UNL     1     -31.782   5.307   1.432  1.00 20.00    -0.223 OA
HETATM    7  S7  UNL     1     -32.577   6.430   0.994  1.00 20.00     0.172 S 
ENDROOT
TORSDOF 0
