REMARK  0 active torsions:
REMARK  status: ('A' for Active; 'I' for Inactive)
ROOT
HETATM    1  C1  UNL     1     -32.786   7.854   3.042  1.00 20.00    -0.029 C 
HETATM    2  C2  UNL     1     -32.627   7.002   2.015  1.00 20.00    -0.014 C 
HETATM    3  C3  UNL     1     -33.887   5.030   3.036  1.00 20.00     0.143 C 
HETATM    4  C4  UNL     1     -33.561   7.671   4.315  1.00 20.00     0.032 C 
HETATM    5  C5  UNL     1     -35.729   6.995   3.013  1.00 20.00     0.018 A 
HETATM    6  C6  UNL     1     -35.116   5.716   3.518  1.00 20.00     0.061 A 
HETATM    7  C7  UNL     1     -34.907   7.009   4.270  1.00 20.00     0.001 A 
HETATM    8  C8  UNL     1     -33.108   5.578   1.832  1.00 20.00     0.031 C 
HETATM    9  C9  UNL     1     -33.960   5.433   0.561  1.00 20.00     0.027 C 
HETATM   10  C10 UNL     1     -31.843   4.708   1.641  1.00 20.00     0.027 C 
HETATM   11  O11 UNL     1     -33.525   4.029   3.651  1.00 20.00    -0.296 OA
ENDROOT
TORSDOF 0
