REMARK  3 active torsions:
REMARK  status: ('A' for Active; 'I' for Inactive)
REMARK    1  A    between atoms: C6_6  and  N10_10 
REMARK    2  A    between atoms: C7_7  and  C8_8 
REMARK    3  A    between atoms: C7_7  and  N10_10 
ROOT
HETATM    1  C1  UNL     1     -33.021   5.577   1.499  1.00 20.00     0.086 C 
HETATM    2  C6  UNL     1     -31.941   6.558   1.557  1.00 20.00     0.357 C 
HETATM    3  N9  UNL     1     -33.876   4.794   1.450  1.00 20.00    -0.196 NA
ENDROOT
BRANCH   2   4
HETATM    4  N10 UNL     1     -32.468   7.860   2.109  1.00 20.00    -0.062 N 
HETATM    5  C5  UNL     1     -33.336   7.627   3.322  1.00 20.00     0.270 C 
HETATM    6  H27 UNL     1     -31.641   8.383   2.446  1.00 20.00     0.280 HD
BRANCH   4   7
HETATM    7  C7  UNL     1     -33.139   8.688   1.077  1.00 20.00     0.243 C 
BRANCH   7   8
HETATM    8  C8  UNL     1     -32.136   9.379   0.129  1.00 20.00    -0.027 C 
HETATM    9  C2  UNL     1     -32.345   8.935  -1.329  1.00 20.00     0.016 C 
HETATM   10  C3  UNL     1     -32.375  10.899   0.216  1.00 20.00     0.016 C 
HETATM   11  C4  UNL     1     -30.683   9.089   0.543  1.00 20.00     0.016 C 
ENDBRANCH   7   8
ENDBRANCH   4   7
ENDBRANCH   2   4
TORSDOF 3
