REMARK  0 active torsions:
REMARK  status: ('A' for Active; 'I' for Inactive)
ROOT
HETATM    1  C1  UNL     1     -33.024   6.041   2.092  1.00 20.00    -0.010 C 
HETATM    2  C2  UNL     1     -33.659   6.262   3.422  1.00 20.00     0.155 C 
HETATM    3  C3  UNL     1     -32.571   4.814   1.802  1.00 20.00    -0.078 C 
HETATM    4  C4  UNL     1     -32.911   7.220   1.172  1.00 20.00     0.051 C 
HETATM    5  C5  UNL     1     -33.403   7.595   4.093  1.00 20.00     0.084 C 
HETATM    6  C6  UNL     1     -33.353   8.760   3.108  1.00 20.00     0.017 C 
HETATM    7  C7  UNL     1     -32.437   8.504   1.891  1.00 20.00    -0.043 C 
HETATM    8  C8  UNL     1     -31.918   4.497   0.488  1.00 20.00     0.043 C 
HETATM    9  C9  UNL     1     -32.688   3.674   2.772  1.00 20.00     0.043 C 
HETATM   10  C10 UNL     1     -32.550   9.693   0.920  1.00 20.00     0.015 C 
HETATM   11  C11 UNL     1     -30.963   8.378   2.324  1.00 20.00     0.015 C 
HETATM   12  O12 UNL     1     -34.298   5.376   3.986  1.00 20.00    -0.293 OA
ENDROOT
TORSDOF 0
