REMARK  0 active torsions:
REMARK  status: ('A' for Active; 'I' for Inactive)
ROOT
HETATM    1  C1  UNL     1     -33.197   8.108   3.643  1.00 20.00    -0.023 C 
HETATM    2  C2  UNL     1     -33.948   7.519   4.593  1.00 20.00    -0.013 C 
HETATM    3  C3  UNL     1     -33.841   5.122   3.751  1.00 20.00     0.140 C 
HETATM    4  C4  UNL     1     -32.664   5.097   2.795  1.00 20.00     0.088 C 
HETATM    5  C5  UNL     1     -33.813   7.304   2.507  1.00 20.00     0.035 C 
HETATM    6  C6  UNL     1     -34.554   6.515   3.629  1.00 20.00     0.042 C 
HETATM    7  C7  UNL     1     -32.959   6.233   1.780  1.00 20.00    -0.033 C 
HETATM    8  C8  UNL     1     -36.067   6.463   3.560  1.00 20.00     0.029 C 
HETATM    9  C9  UNL     1     -31.664   6.847   1.239  1.00 20.00     0.016 C 
HETATM   10  C10 UNL     1     -33.777   5.675   0.600  1.00 20.00     0.016 C 
HETATM   11  O11 UNL     1     -34.104   4.194   4.508  1.00 20.00    -0.297 OA
ENDROOT
TORSDOF 0
