REMARK  0 active torsions:
REMARK  status: ('A' for Active; 'I' for Inactive)
ROOT
HETATM    1  C1  UNL     1     -34.263   6.896   0.716  1.00 20.00    -0.002 C 
HETATM    2  C2  UNL     1     -32.601   5.216   1.561  1.00 20.00    -0.002 C 
HETATM    3  C3  UNL     1     -33.510   7.989   0.521  1.00 20.00    -0.022 C 
HETATM    4  C4  UNL     1     -31.452   5.910   1.568  1.00 20.00    -0.022 C 
HETATM    5  C5  UNL     1     -33.225   7.482   3.564  1.00 20.00     0.079 C 
HETATM    6  C6  UNL     1     -33.942   5.861   1.752  1.00 20.00     0.128 C 
HETATM    7  C7  UNL     1     -32.295   8.369   1.253  1.00 20.00     0.028 A 
HETATM    8  C8  UNL     1     -31.293   7.358   1.763  1.00 20.00     0.028 A 
HETATM    9  C9  UNL     1     -32.158   8.124   2.741  1.00 20.00     0.063 A 
HETATM   10  N10 UNL     1     -34.013   6.460   3.080  1.00 20.00    -0.373 N 
HETATM   11  S11 UNL     1     -33.420   8.071   5.117  1.00 20.00    -0.065 SA
HETATM   12  H20 UNL     1     -34.714   6.086   3.713  1.00 20.00     0.161 HD
ENDROOT
TORSDOF 0
