REMARK  1 active torsions:
REMARK  status: ('A' for Active; 'I' for Inactive)
REMARK    1  A    between atoms: C3_3  and  C7_7 
ROOT
HETATM    1  C1  UNL     1     -32.387   8.523   1.686  1.00 20.00     0.259 C 
HETATM    2  C4  UNL     1     -31.469   7.332   1.599  1.00 20.00     0.111 C 
HETATM    3  C5  UNL     1     -32.270   6.049   1.446  1.00 20.00     0.013 C 
HETATM    4  C6  UNL     1     -33.417   5.951   2.451  1.00 20.00     0.037 C 
HETATM    5  C7  UNL     1     -33.491   7.180   3.352  1.00 20.00     0.154 C 
HETATM    6  O8  UNL     1     -32.198   9.556   1.051  1.00 20.00    -0.265 OA
HETATM    7  O9  UNL     1     -33.425   8.380   2.553  1.00 20.00    -0.312 OA
ENDROOT
BRANCH   5   8
HETATM    8  C3  UNL     1     -34.761   7.214   4.138  1.00 20.00    -0.005 C 
HETATM    9  C2  UNL     1     -35.693   6.255   4.094  1.00 20.00     0.009 C 
ENDBRANCH   5   8
TORSDOF 1
