REMARK  3 active torsions:
REMARK  status: ('A' for Active; 'I' for Inactive)
REMARK    1  A    between atoms: C6_6  and  C7_7 
REMARK    2  A    between atoms: C8_8  and  C10_10 
REMARK    3  A    between atoms: C9_9  and  C11_11 
ROOT
HETATM    1  C1  UNL     1     -32.171   5.293   0.627  1.00 20.00    -0.021 C 
HETATM    2  C2  UNL     1     -31.459   5.494   1.758  1.00 20.00    -0.020 C 
HETATM    3  C5  UNL     1     -34.022   6.639   1.547  1.00 20.00    -0.003 C 
HETATM    4  C6  UNL     1     -33.305   6.839   2.668  1.00 20.00     0.024 C 
HETATM    5  C8  UNL     1     -33.164   6.413   0.303  1.00 20.00     0.039 C 
HETATM    6  C9  UNL     1     -31.794   6.801   2.483  1.00 20.00     0.056 C 
ENDROOT
BRANCH   4   7
HETATM    7  C7  UNL     1     -33.959   7.093   4.000  1.00 20.00     0.205 C 
HETATM    8  O12 UNL     1     -35.094   6.554   4.160  1.00 20.00    -0.644 OA
HETATM    9  O13 UNL     1     -33.297   7.816   4.802  1.00 20.00    -0.644 OA
ENDBRANCH   4   7
BRANCH   6  10
HETATM   10  C11 UNL     1     -31.419   7.899   1.437  1.00 20.00     0.029 A 
HETATM   11  C4  UNL     1     -32.090   9.262   1.483  1.00 20.00    -0.024 A 
HETATM   12  C3  UNL     1     -32.803   9.061   0.357  1.00 20.00    -0.024 A 
HETATM   13  C10 UNL     1     -32.249   7.666   0.119  1.00 20.00     0.028 A 
ENDBRANCH   6  10
TORSDOF 3
