REMARK  2 active torsions:
REMARK  status: ('A' for Active; 'I' for Inactive)
REMARK    1  A    between atoms: C6_6  and  C10_10 
REMARK    2  A    between atoms: C10_10  and  O11_11 
ROOT
HETATM    1  C1  UNL     1     -33.617   7.147   4.034  1.00 20.00    -0.024 C 
HETATM    2  C2  UNL     1     -32.624   7.727   3.334  1.00 20.00    -0.081 C 
HETATM    3  C3  UNL     1     -34.363   5.929   3.581  1.00 20.00     0.027 C 
HETATM    4  C4  UNL     1     -33.666   5.197   2.437  1.00 20.00     0.004 C 
HETATM    5  C5  UNL     1     -33.184   6.184   1.382  1.00 20.00     0.012 C 
HETATM    6  C6  UNL     1     -32.190   7.207   1.971  1.00 20.00     0.042 C 
HETATM    7  C7  UNL     1     -31.868   8.893   3.911  1.00 20.00     0.043 C 
ENDROOT
BRANCH   6   8
HETATM    8  C10 UNL     1     -31.968   8.322   0.943  1.00 20.00     0.124 C 
HETATM    9  C8  UNL     1     -31.576   7.760  -0.410  1.00 20.00     0.040 C 
BRANCH   8  10
HETATM   10  O11 UNL     1     -33.167   9.075   0.819  1.00 20.00    -0.390 OA
HETATM   11  C9  UNL     1     -32.923  10.359   0.261  1.00 20.00     0.202 C 
ENDBRANCH   8  10
ENDBRANCH   6   8
TORSDOF 2
