REMARK  2 active torsions:
REMARK  status: ('A' for Active; 'I' for Inactive)
REMARK    1  A    between atoms: C6_6  and  N9_9 
REMARK    2  A    between atoms: C7_7  and  N9_9 
ROOT
HETATM    1  C1  UNL     1     -33.646   3.059   4.509  1.00 20.00     0.013 C 
HETATM    2  C2  UNL     1     -33.926   4.156   4.110  1.00 20.00    -0.087 C 
HETATM    3  C6  UNL     1     -34.272   5.494   3.625  1.00 20.00     0.366 C 
ENDROOT
BRANCH   3   4
HETATM    4  N9  UNL     1     -33.131   6.109   2.948  1.00 20.00     0.112 N 
HETATM    5  C5  UNL     1     -33.011   5.599   1.583  1.00 20.00     0.312 C 
BRANCH   4   6
HETATM    6  C7  UNL     1     -33.265   7.565   2.940  1.00 20.00     0.325 C 
HETATM    7  C3  UNL     1     -32.372   8.144   1.927  1.00 20.00     0.095 C 
HETATM    8  N8  UNL     1     -31.669   8.603   1.127  1.00 20.00    -0.195 NA
HETATM    9  C4  UNL     1     -32.973   8.141   4.319  1.00 20.00     0.059 C 
ENDBRANCH   4   6
ENDBRANCH   3   4
TORSDOF 2
