REMARK  2 active torsions:
REMARK  status: ('A' for Active; 'I' for Inactive)
REMARK    1  A    between atoms: C3_3  and  N10_10 
REMARK    2  A    between atoms: C8_8  and  N10_10 
ROOT
HETATM    1  C1  UNL     1     -33.772   5.721   2.954  1.00 20.00     0.094 C 
HETATM    2  C7  UNL     1     -32.762   5.168   0.774  1.00 20.00     0.059 C 
HETATM    3  C8  UNL     1     -33.227   6.276   1.709  1.00 20.00     0.322 C 
HETATM    4  N9  UNL     1     -34.207   5.283   3.937  1.00 20.00    -0.195 NA
ENDROOT
BRANCH   3   5
HETATM    5  N10 UNL     1     -32.134   7.186   2.010  1.00 20.00     0.106 N 
HETATM    6  H24 UNL     1     -31.287   6.655   2.191  1.00 20.00     0.318 HD
BRANCH   5   7
HETATM    7  C3  UNL     1     -31.889   8.089   0.880  1.00 20.00     0.230 A 
HETATM    8  C2  UNL     1     -31.155   9.385   1.099  1.00 20.00     0.047 A 
HETATM    9  C4  UNL     1     -32.625   9.411   0.746  1.00 20.00    -0.015 A 
HETATM   10  C5  UNL     1     -33.008   9.851  -0.643  1.00 20.00     0.017 C 
HETATM   11  C6  UNL     1     -33.596   9.839   1.815  1.00 20.00     0.017 C 
ENDBRANCH   5   7
ENDBRANCH   3   5
TORSDOF 2
