REMARK  1 active torsions:
REMARK  status: ('A' for Active; 'I' for Inactive)
REMARK    1  A    between atoms: C6_6  and  N10_10 
ROOT
HETATM    1  C1  UNL     1     -33.999   6.578   3.332  1.00 20.00     0.156 C 
HETATM    2  C2  UNL     1     -33.707   5.843   2.060  1.00 20.00     0.110 C 
HETATM    3  C3  UNL     1     -33.056   7.735   3.529  1.00 20.00     0.350 C 
HETATM    4  C5  UNL     1     -32.356   6.444   1.700  1.00 20.00     0.281 C 
HETATM    5  N10 UNL     1     -32.336   7.813   2.247  1.00 20.00     0.101 N 
HETATM    6  O11 UNL     1     -34.894   6.279   4.111  1.00 20.00    -0.296 OA
ENDROOT
BRANCH   5   7
HETATM    7  C6  UNL     1     -32.980   8.759   1.334  1.00 20.00     0.232 A 
HETATM    8  C4  UNL     1     -32.708  10.236   1.445  1.00 20.00     0.047 A 
HETATM    9  C7  UNL     1     -32.215   9.476   0.234  1.00 20.00    -0.015 A 
HETATM   10  C8  UNL     1     -30.730   9.271   0.089  1.00 20.00     0.017 C 
HETATM   11  C9  UNL     1     -32.931   9.694  -1.074  1.00 20.00     0.017 C 
ENDBRANCH   5   7
TORSDOF 1
