REMARK  3 active torsions:
REMARK  status: ('A' for Active; 'I' for Inactive)
REMARK    1  A    between atoms: C2_2  and  C8_8 
REMARK    2  A    between atoms: C4_4  and  N9_9 
REMARK    3  A    between atoms: C8_8  and  N9_9 
ROOT
HETATM    1  N9  UNL     1     -32.703   7.790   1.800  1.00 20.00     0.093 N 
HETATM    2  H24 UNL     1     -32.103   8.003   2.592  1.00 20.00     0.316 HD
ENDROOT
BRANCH   1   3
HETATM    3  C4  UNL     1     -31.964   8.061   0.563  1.00 20.00     0.229 A 
HETATM    4  C3  UNL     1     -32.696   8.274  -0.735  1.00 20.00     0.047 A 
HETATM    5  C5  UNL     1     -31.956   9.428  -0.097  1.00 20.00    -0.015 A 
HETATM    6  C6  UNL     1     -32.774  10.553   0.483  1.00 20.00     0.017 C 
HETATM    7  C7  UNL     1     -30.668   9.878  -0.736  1.00 20.00     0.017 C 
ENDBRANCH   1   3
BRANCH   1   8
HETATM    8  C8  UNL     1     -33.112   6.397   1.857  1.00 20.00     0.320 C 
BRANCH   8   9
HETATM    9  C2  UNL     1     -33.870   6.069   3.109  1.00 20.00     0.030 C 
HETATM   10  C1  UNL     1     -34.652   6.938   3.761  1.00 20.00     0.034 C 
HETATM   11 CL10 UNL     1     -33.637   4.475   3.746  1.00 20.00    -0.088 Cl
ENDBRANCH   8   9
ENDBRANCH   1   8
TORSDOF 3
