REMARK  0 active torsions:
REMARK  status: ('A' for Active; 'I' for Inactive)
ROOT
HETATM    1  C1  UNL     1     -32.906   5.227   1.958  1.00 20.00     0.060 A 
HETATM    2  C2  UNL     1     -32.641   7.966   2.563  1.00 20.00     0.065 A 
HETATM    3  C3  UNL     1     -35.219   5.981   4.566  1.00 20.00     0.167 A 
HETATM    4  C4  UNL     1     -33.712   5.800   2.966  1.00 20.00     0.076 A 
HETATM    5  C5  UNL     1     -31.856   7.374   1.571  1.00 20.00     0.139 A 
HETATM    6  C6  UNL     1     -33.564   7.161   3.250  1.00 20.00     0.038 A 
HETATM    7  C7  UNL     1     -31.985   6.023   1.271  1.00 20.00     0.074 A 
HETATM    8  N8  UNL     1     -34.663   5.138   3.728  1.00 20.00    -0.253 NA
HETATM    9  F9  UNL     1     -30.971   8.135   0.909  1.00 20.00    -0.204 F 
HETATM   10  S10 UNL     1     -34.658   7.596   4.509  1.00 20.00    -0.080 SA
HETATM   11 CL11 UNL     1     -31.007   5.313   0.042  1.00 20.00    -0.081 Cl
ENDROOT
TORSDOF 0
