REMARK  0 active torsions:
REMARK  status: ('A' for Active; 'I' for Inactive)
ROOT
HETATM    1  C1  UNL     1     -31.992   6.187   1.529  1.00 20.00     0.042 C 
HETATM    2  C2  UNL     1     -33.733   3.822   4.013  1.00 20.00    -0.026 A 
HETATM    3  C3  UNL     1     -34.757   4.583   4.420  1.00 20.00    -0.026 A 
HETATM    4  C4  UNL     1     -32.919   5.699   2.538  1.00 20.00    -0.050 A 
HETATM    5  C5  UNL     1     -33.951   6.471   2.948  1.00 20.00    -0.067 A 
HETATM    6  C6  UNL     1     -31.963   7.491   1.229  1.00 20.00     0.079 C 
HETATM    7  C7  UNL     1     -32.703   4.290   3.027  1.00 20.00     0.065 A 
HETATM    8  C8  UNL     1     -34.982   5.985   3.937  1.00 20.00     0.061 A 
HETATM    9  C9  UNL     1     -34.141   7.883   2.422  1.00 20.00     0.074 C 
HETATM   10  C10 UNL     1     -31.888   9.320   0.031  1.00 20.00     0.345 C 
HETATM   11  C11 UNL     1     -32.840   8.487   1.888  1.00 20.00     0.184 C 
HETATM   12  O12 UNL     1     -31.269   8.032   0.172  1.00 20.00    -0.328 OA
HETATM   13  O13 UNL     1     -33.067   9.424   0.842  1.00 20.00    -0.354 OA
ENDROOT
TORSDOF 0
