REMARK  0 active torsions:
REMARK  status: ('A' for Active; 'I' for Inactive)
ROOT
HETATM    1  C1  UNL     1     -32.287   5.437   1.779  1.00 20.00     0.035 A 
HETATM    2  C2  UNL     1     -31.515   6.451   1.203  1.00 20.00     0.026 A 
HETATM    3  C3  UNL     1     -32.704   8.134   2.480  1.00 20.00     0.045 A 
HETATM    4  C4  UNL     1     -33.286   5.767   2.720  1.00 20.00     0.077 A 
HETATM    5  C5  UNL     1     -33.476   7.111   3.054  1.00 20.00     0.039 A 
HETATM    6  C6  UNL     1     -31.723   7.781   1.551  1.00 20.00     0.035 A 
HETATM    7  C7  UNL     1     -34.927   5.529   4.175  1.00 20.00     0.253 A 
HETATM    8  N8  UNL     1     -34.124   4.873   3.371  1.00 20.00    -0.213 NA
HETATM    9  F9  UNL     1     -35.842   4.899   4.925  1.00 20.00    -0.176 F 
HETATM   10  S10 UNL     1     -34.745   7.229   4.215  1.00 20.00    -0.037 SA
HETATM   11 CL11 UNL     1     -30.756   9.012   0.830  1.00 20.00    -0.084 Cl
ENDROOT
TORSDOF 0
