REMARK  1 active torsions:
REMARK  status: ('A' for Active; 'I' for Inactive)
REMARK    1  A    between atoms: C6_6  and  N7_7 
ROOT
HETATM    1  C1  UNL     1     -34.130   7.511   3.629  1.00 20.00     0.015 C 
HETATM    2  C2  UNL     1     -33.406   7.007   2.814  1.00 20.00    -0.084 C 
HETATM    3  C4  UNL     1     -31.703   5.260   2.440  1.00 20.00     0.055 C 
HETATM    4  C5  UNL     1     -33.316   5.884   0.613  1.00 20.00     0.055 C 
HETATM    5  C6  UNL     1     -32.521   6.386   1.815  1.00 20.00     0.112 C 
ENDROOT
BRANCH   5   6
HETATM    6  N7  UNL     1     -31.595   7.433   1.370  1.00 20.00    -0.224 NA
HETATM    7  C3  UNL     1     -32.118   8.363   0.882  1.00 20.00     0.333 C 
HETATM    8  O8  UNL     1     -32.636   9.298   0.392  1.00 20.00    -0.260 OA
ENDBRANCH   5   6
TORSDOF 1
