REMARK  1 active torsions:
REMARK  status: ('A' for Active; 'I' for Inactive)
REMARK    1  A    between atoms: C1_1  and  C2_2 
ROOT
HETATM    1  C2  UNL     1     -32.900   6.794   2.096  1.00 20.00     0.447 C 
HETATM    2  F5  UNL     1     -32.474   5.697   1.437  1.00 20.00    -0.166 F 
HETATM    3  F6  UNL     1     -33.965   7.292   1.433  1.00 20.00    -0.166 F 
HETATM    4  F7  UNL     1     -31.916   7.718   2.048  1.00 20.00    -0.166 F 
ENDROOT
BRANCH   1   5
HETATM    5  C1  UNL     1     -33.258   6.468   3.516  1.00 20.00     0.459 C 
HETATM    6  F3  UNL     1     -34.270   5.568   3.533  1.00 20.00    -0.205 F 
HETATM    7  F4  UNL     1     -33.711   7.583   4.138  1.00 20.00    -0.205 F 
ENDBRANCH   1   5
TORSDOF 1
