REMARK  0 active torsions:
REMARK  status: ('A' for Active; 'I' for Inactive)
ROOT
HETATM    1  C1  UNL     1     -33.805   6.812   3.193  1.00 20.00     0.317 C 
HETATM    2  C2  UNL     1     -32.971   6.722   2.155  1.00 20.00     0.253 C 
HETATM    3  F3  UNL     1     -34.142   8.014   3.709  1.00 20.00    -0.169 F 
HETATM    4  F4  UNL     1     -34.319   5.688   3.734  1.00 20.00    -0.169 F 
HETATM    5  F5  UNL     1     -32.659   5.501   1.669  1.00 20.00    -0.187 F 
HETATM    6 CL6  UNL     1     -32.282   8.116   1.419  1.00 20.00    -0.046 Cl
ENDROOT
TORSDOF 0
