REMARK  0 active torsions:
REMARK  status: ('A' for Active; 'I' for Inactive)
ROOT
HETATM    1  C1  UNL     1     -33.743   6.764   4.925  1.00 20.00     0.089 C 
HETATM    2  C2  UNL     1     -34.377   5.921   3.834  1.00 20.00     0.251 C 
HETATM    3  F3  UNL     1     -35.689   6.264   3.731  1.00 20.00    -0.208 F 
HETATM    4 CL4  UNL     1     -34.267   4.194   4.243  1.00 20.00    -0.066 Cl
HETATM    5 CL5  UNL     1     -33.582   6.229   2.274  1.00 20.00    -0.066 Cl
ENDROOT
TORSDOF 0
