REMARK  0 active torsions:
REMARK  status: ('A' for Active; 'I' for Inactive)
ROOT
HETATM    1  C1  UNL     1     -32.515   9.233   0.395  1.00 20.00     0.085 C 
HETATM    2  C2  UNL     1     -33.635   8.153   2.306  1.00 20.00     0.051 C 
HETATM    3  C3  UNL     1     -32.237   6.798   0.651  1.00 20.00     0.051 C 
HETATM    4  C4  UNL     1     -33.672   7.036   3.345  1.00 20.00     0.076 C 
HETATM    5  C5  UNL     1     -32.164   5.574   1.561  1.00 20.00     0.076 C 
HETATM    6  C6  UNL     1     -32.404   8.142   1.382  1.00 20.00     0.127 C 
HETATM    7  N7  UNL     1     -32.601  10.091  -0.381  1.00 20.00    -0.195 NA
HETATM    8  S8  UNL     1     -33.657   5.394   2.576  1.00 20.00    -0.169 SA
HETATM    9 CL9  UNL     1     -30.921   8.507   2.336  1.00 20.00    -0.103 Cl
ENDROOT
TORSDOF 0
