REMARK  1 active torsions:
REMARK  status: ('A' for Active; 'I' for Inactive)
REMARK    1  A    between atoms: C7_7  and  N8_8 
ROOT
HETATM    1  C1  UNL     1     -32.399   6.811   0.626  1.00 20.00     0.045 C 
HETATM    2  C2  UNL     1     -32.965   5.942   1.739  1.00 20.00     0.236 C 
HETATM    3  C3  UNL     1     -32.421   8.184   2.549  1.00 20.00     0.251 C 
HETATM    4  C4  UNL     1     -31.541   7.835   1.359  1.00 20.00     0.086 C 
HETATM    5  N8  UNL     1     -32.985   6.838   2.963  1.00 20.00    -0.066 N 
HETATM    6  S9  UNL     1     -31.188   9.285   0.340  1.00 20.00    -0.091 SA
HETATM    7  H24 UNL     1     -32.324   6.433   3.640  1.00 20.00     0.280 HD
ENDROOT
BRANCH   5   8
HETATM    8  C7  UNL     1     -34.313   6.923   3.644  1.00 20.00     0.180 C 
HETATM    9  C5  UNL     1     -34.189   7.870   4.827  1.00 20.00     0.039 C 
HETATM   10  C6  UNL     1     -34.728   5.523   4.068  1.00 20.00     0.039 C 
ENDBRANCH   5   8
TORSDOF 1
