REMARK  1 active torsions:
REMARK  status: ('A' for Active; 'I' for Inactive)
REMARK    1  A    between atoms: C5_5  and  C6_6 
ROOT
HETATM    1  C1  UNL     1     -33.588   6.787   3.154  1.00 20.00     0.080 C 
HETATM    2  C6  UNL     1     -32.630   6.918   2.051  1.00 20.00     0.195 C 
HETATM    3  N7  UNL     1     -34.344   6.678   4.028  1.00 20.00    -0.196 NA
HETATM    4 CL9  UNL     1     -32.710   5.428   1.074  1.00 20.00    -0.109 Cl
ENDROOT
BRANCH   2   5
HETATM    5  C5  UNL     1     -32.937   8.123   1.182  1.00 20.00     0.044 C 
HETATM    6  C2  UNL     1     -32.853   9.448   1.907  1.00 20.00     0.035 C 
HETATM    7  C3  UNL     1     -32.710  10.420   0.754  1.00 20.00     0.168 C 
HETATM    8  O8  UNL     1     -32.006   9.728  -0.287  1.00 20.00    -0.391 OA
HETATM    9  C4  UNL     1     -31.942   8.335   0.055  1.00 20.00     0.174 C 
ENDBRANCH   2   5
TORSDOF 1
