REMARK  1 active torsions:
REMARK  status: ('A' for Active; 'I' for Inactive)
REMARK    1  A    between atoms: C4_4  and  C5_5 
ROOT
HETATM    1  C1  UNL     1     -33.397   7.552   3.194  1.00 20.00     0.085 C 
HETATM    2  C3  UNL     1     -31.233   8.641   2.788  1.00 20.00     0.049 C 
HETATM    3  C5  UNL     1     -32.429   7.929   2.148  1.00 20.00     0.121 C 
HETATM    4  N6  UNL     1     -34.159   7.259   4.019  1.00 20.00    -0.195 NA
HETATM    5 CL7  UNL     1     -31.836   6.406   1.405  1.00 20.00    -0.103 Cl
ENDROOT
BRANCH   3   6
HETATM    6  C4  UNL     1     -33.072   8.840   1.082  1.00 20.00     0.036 C 
HETATM    7  C2  UNL     1     -32.151   9.289  -0.049  1.00 20.00     0.008 C 
ENDBRANCH   3   6
TORSDOF 1
