REMARK  0 active torsions:
REMARK  status: ('A' for Active; 'I' for Inactive)
ROOT
HETATM    1  C1  UNL     1     -34.745   5.135   4.032  1.00 20.00     0.085 C 
HETATM    2  C2  UNL     1     -33.945   7.453   4.363  1.00 20.00     0.067 C 
HETATM    3  C3  UNL     1     -33.123   6.083   2.422  1.00 20.00     0.067 C 
HETATM    4  C4  UNL     1     -33.286   8.658   3.698  1.00 20.00     0.170 C 
HETATM    5  C5  UNL     1     -32.511   7.367   1.868  1.00 20.00     0.170 C 
HETATM    6  C6  UNL     1     -34.317   6.364   3.346  1.00 20.00     0.129 C 
HETATM    7  N7  UNL     1     -35.083   4.166   4.573  1.00 20.00    -0.195 NA
HETATM    8  O8  UNL     1     -32.155   8.255   2.926  1.00 20.00    -0.391 OA
HETATM    9 CL9  UNL     1     -35.728   6.904   2.368  1.00 20.00    -0.103 Cl
ENDROOT
TORSDOF 0
