REMARK  2 active torsions:
REMARK  status: ('A' for Active; 'I' for Inactive)
REMARK    1  A    between atoms: C4_4  and  C5_5 
REMARK    2  A    between atoms: C4_4  and  C6_6 
ROOT
HETATM    1  C1  UNL     1     -32.412   6.303   1.580  1.00 20.00     0.079 C 
HETATM    2  C5  UNL     1     -32.572   7.656   2.126  1.00 20.00     0.189 C 
HETATM    3  N7  UNL     1     -32.286   5.232   1.152  1.00 20.00    -0.196 NA
HETATM    4 CL8  UNL     1     -31.960   8.798   0.890  1.00 20.00    -0.109 Cl
ENDROOT
BRANCH   2   5
HETATM    5  C4  UNL     1     -34.034   7.992   2.446  1.00 20.00     0.039 C 
BRANCH   5   6
HETATM    6  C6  UNL     1     -34.542   7.459   3.804  1.00 20.00    -0.020 C 
HETATM    7  C2  UNL     1     -34.456   5.936   3.903  1.00 20.00     0.009 C 
HETATM    8  C3  UNL     1     -33.737   8.096   4.941  1.00 20.00     0.009 C 
ENDBRANCH   5   6
ENDBRANCH   2   5
TORSDOF 2
