REMARK  1 active torsions:
REMARK  status: ('A' for Active; 'I' for Inactive)
REMARK    1  A    between atoms: C5_5  and  C6_6 
ROOT
HETATM    1  C1  UNL     1     -32.523   7.692   1.427  1.00 20.00     0.080 C 
HETATM    2  C5  UNL     1     -32.936   6.464   2.125  1.00 20.00     0.196 C 
HETATM    3  N7  UNL     1     -32.194   8.661   0.879  1.00 20.00    -0.196 NA
HETATM    4 CL8  UNL     1     -33.520   5.336   0.858  1.00 20.00    -0.109 Cl
ENDROOT
BRANCH   2   5
HETATM    5  C6  UNL     1     -33.983   6.708   3.255  1.00 20.00    -0.022 C 
HETATM    6  C2  UNL     1     -33.388   7.629   4.343  1.00 20.00     0.017 C 
HETATM    7  C3  UNL     1     -35.221   7.426   2.671  1.00 20.00     0.017 C 
HETATM    8  C4  UNL     1     -34.451   5.402   3.927  1.00 20.00     0.017 C 
ENDBRANCH   2   5
TORSDOF 1
