REMARK  1 active torsions:
REMARK  status: ('A' for Active; 'I' for Inactive)
REMARK    1  A    between atoms: C5_5  and  C6_6 
ROOT
HETATM    1  C1  UNL     1     -32.379   8.988   0.481  1.00 20.00     0.084 C 
HETATM    2  C6  UNL     1     -31.893   7.960   1.428  1.00 20.00     0.222 C 
HETATM    3  N7  UNL     1     -32.759   9.781  -0.277  1.00 20.00    -0.195 NA
HETATM    4 CL9  UNL     1     -31.571   6.466   0.484  1.00 20.00    -0.104 Cl
ENDROOT
BRANCH   2   5
HETATM    5  C5  UNL     1     -32.812   7.683   2.556  1.00 20.00    -0.019 A 
HETATM    6  C2  UNL     1     -33.417   6.416   2.795  1.00 20.00     0.017 A 
HETATM    7  C3  UNL     1     -34.227   6.431   3.910  1.00 20.00     0.050 A 
HETATM    8  S8  UNL     1     -34.255   7.969   4.662  1.00 20.00    -0.113 SA
HETATM    9  C4  UNL     1     -33.182   8.619   3.497  1.00 20.00     0.059 A 
ENDBRANCH   2   5
TORSDOF 1
