REMARK  1 active torsions:
REMARK  status: ('A' for Active; 'I' for Inactive)
REMARK    1  A    between atoms: C2_2  and  C4_4 
ROOT
HETATM    1  C1  UNL     1     -33.977   7.770   3.685  1.00 20.00     0.076 A 
HETATM    2  C2  UNL     1     -33.196   7.224   2.751  1.00 20.00     0.053 A 
HETATM    3  C3  UNL     1     -34.307   5.199   3.902  1.00 20.00     0.255 A 
HETATM    4  O5  UNL     1     -34.659   4.078   4.239  1.00 20.00    -0.272 OA
HETATM    5  S7  UNL     1     -34.894   6.674   4.669  1.00 20.00    -0.051 SA
HETATM    6  S8  UNL     1     -33.162   5.509   2.599  1.00 20.00    -0.037 SA
ENDROOT
BRANCH   2   7
HETATM    7  C4  UNL     1     -32.377   8.037   1.862  1.00 20.00     0.278 C 
HETATM    8  O6  UNL     1     -31.651   7.555   0.996  1.00 20.00    -0.301 OA
ENDBRANCH   2   7
TORSDOF 1
