REMARK  2 active torsions:
REMARK  status: ('A' for Active; 'I' for Inactive)
REMARK    1  A    between atoms: C4_4  and  C5_5 
REMARK    2  A    between atoms: C6_6  and  C10_10 
ROOT
HETATM    1  C1  UNL     1     -35.515   6.169   4.606  1.00 20.00    -0.003 C 
HETATM    2  C2  UNL     1     -34.753   7.176   3.915  1.00 20.00     0.010 C 
HETATM    3  C3  UNL     1     -35.229   4.868   4.485  1.00 20.00    -0.021 C 
HETATM    4  C4  UNL     1     -33.648   6.861   3.225  1.00 20.00    -0.016 C 
HETATM    5  C6  UNL     1     -34.110   4.351   3.615  1.00 20.00     0.016 C 
HETATM    6  C7  UNL     1     -33.119   5.449   3.092  1.00 20.00     0.025 C 
HETATM    7  C8  UNL     1     -32.726   5.110   1.645  1.00 20.00     0.016 C 
ENDROOT
BRANCH   4   8
HETATM    8  C5  UNL     1     -32.906   7.992   2.656  1.00 20.00     0.266 C 
HETATM    9  O11 UNL     1     -31.692   7.968   2.490  1.00 20.00    -0.302 OA
ENDBRANCH   4   8
BRANCH   5  10
HETATM   10  C10 UNL     1     -33.338   3.251   4.356  1.00 20.00     0.005 C 
HETATM   11  C9  UNL     1     -32.281   2.649   3.493  1.00 20.00     0.006 C 
ENDBRANCH   5  10
TORSDOF 2
