REMARK  1 active torsions:
REMARK  status: ('A' for Active; 'I' for Inactive)
REMARK    1  A    between atoms: C3_3  and  C8_8 
ROOT
HETATM    1  C1  UNL     1     -33.989   7.060   3.910  1.00 20.00    -0.029 C 
HETATM    2  C2  UNL     1     -34.843   6.309   3.206  1.00 20.00    -0.030 C 
HETATM    3  C4  UNL     1     -32.908   7.910   3.324  1.00 20.00     0.045 C 
HETATM    4  C5  UNL     1     -34.817   6.186   1.718  1.00 20.00     0.037 C 
HETATM    5  C6  UNL     1     -31.348   6.518   1.802  1.00 20.00     0.019 C 
HETATM    6  C7  UNL     1     -32.346   5.372   1.601  1.00 20.00     0.012 C 
HETATM    7  C8  UNL     1     -32.540   7.538   1.871  1.00 20.00     0.031 C 
HETATM    8  C9  UNL     1     -33.413   6.417   1.151  1.00 20.00    -0.026 C 
HETATM    9  C11 UNL     1     -33.479   6.505  -0.382  1.00 20.00     0.016 C 
ENDROOT
BRANCH   7  10
HETATM   10  C3  UNL     1     -32.303   8.846   1.045  1.00 20.00     0.132 C 
HETATM   11  C10 UNL     1     -30.940   9.021   0.431  1.00 20.00     0.091 C 
HETATM   12  O12 UNL     1     -33.187   9.689   0.902  1.00 20.00    -0.298 OA
ENDBRANCH   7  10
TORSDOF 1
