REMARK  2 active torsions:
REMARK  status: ('A' for Active; 'I' for Inactive)
REMARK    1  A    between atoms: C3_3  and  C8_8 
REMARK    2  A    between atoms: C8_8  and  C10_10 
ROOT
HETATM    1  C1  UNL     1     -35.068   5.931   4.253  1.00 20.00    -0.026 C 
HETATM    2  C2  UNL     1     -33.861   5.354   4.355  1.00 20.00    -0.024 C 
HETATM    3  C4  UNL     1     -33.515   7.627   4.366  1.00 20.00     0.018 C 
HETATM    4  C5  UNL     1     -34.437   7.194   2.210  1.00 20.00     0.025 C 
HETATM    5  C6  UNL     1     -34.855   7.319   3.697  1.00 20.00     0.010 C 
HETATM    6  C7  UNL     1     -32.845   6.348   3.834  1.00 20.00     0.024 C 
HETATM    7  C8  UNL     1     -33.034   6.508   2.293  1.00 20.00     0.020 C 
ENDROOT
BRANCH   7   8
HETATM    8  C3  UNL     1     -31.950   7.415   1.764  1.00 20.00     0.241 C 
HETATM    9  O11 UNL     1     -32.164   8.541   1.329  1.00 20.00    -0.306 OA
ENDBRANCH   7   8
BRANCH   7  10
HETATM   10  C10 UNL     1     -32.964   5.201   1.503  1.00 20.00     0.013 C 
HETATM   11  C9  UNL     1     -33.176   5.430   0.043  1.00 20.00     0.006 C 
ENDBRANCH   7  10
TORSDOF 2
