REMARK  4 active torsions:
REMARK  status: ('A' for Active; 'I' for Inactive)
REMARK    1  A    between atoms: C4_4  and  C6_6 
REMARK    2  A    between atoms: C4_4  and  N7_7 
REMARK    3  A    between atoms: C5_5  and  C6_6 
REMARK    4  A    between atoms: C5_5  and  O8_8 
ROOT
HETATM    1  C1  UNL     1     -32.327   8.294   1.140  1.00 20.00     0.157 C 
HETATM    2  N7  UNL     1     -31.992   7.273   1.613  1.00 20.00    -0.275 NA
HETATM    3  S9  UNL     1     -32.754   9.690   0.503  1.00 20.00    -0.055 SA
ENDROOT
BRANCH   2   4
HETATM    4  C4  UNL     1     -33.021   6.231   1.624  1.00 20.00     0.157 C 
BRANCH   4   5
HETATM    5  C6  UNL     1     -33.304   5.756   3.053  1.00 20.00     0.025 C 
HETATM    6  C2  UNL     1     -33.813   6.900   3.936  1.00 20.00     0.014 C 
BRANCH   5   7
HETATM    7  C5  UNL     1     -34.269   4.564   3.073  1.00 20.00     0.172 C 
BRANCH   7   8
HETATM    8  O8  UNL     1     -34.407   4.077   4.402  1.00 20.00    -0.396 OA
HETATM    9  C3  UNL     1     -33.291   3.284   4.784  1.00 20.00     0.201 C 
ENDBRANCH   7   8
ENDBRANCH   5   7
ENDBRANCH   4   5
ENDBRANCH   2   4
TORSDOF 4
