REMARK  2 active torsions:
REMARK  status: ('A' for Active; 'I' for Inactive)
REMARK    1  A    between atoms: C1_1  and  C3_3 
REMARK       I    between atoms: C1_1  and  N8_8 
REMARK    2  A    between atoms: N8_8  and  O10_10 
ROOT
HETATM    1  C1  UNL     1     -33.049   6.882   2.401  1.00 20.00     0.247 C 
HETATM    2  C6  UNL     1     -34.519   5.573   3.925  1.00 20.00     0.189 C 
HETATM    3  N8  UNL     1     -33.874   6.801   3.496  1.00 20.00    -0.231 N 
HETATM    4  O9  UNL     1     -32.774   5.925   1.675  1.00 20.00    -0.271 OA
ENDROOT
BRANCH   1   5
HETATM    5  C3  UNL     1     -32.457   8.241   2.119  1.00 20.00     0.084 A 
HETATM    6  C2  UNL     1     -31.448   8.348   1.032  1.00 20.00     0.019 A 
HETATM    7  C4  UNL     1     -32.829   8.908   0.841  1.00 20.00    -0.005 A 
HETATM    8  C5  UNL     1     -33.044  10.381   0.830  1.00 20.00     0.011 C 
ENDBRANCH   1   5
BRANCH   3   9
HETATM    9  O10 UNL     1     -34.183   7.899   4.320  1.00 20.00    -0.281 OA
HETATM   10  C7  UNL     1     -33.223   7.976   5.370  1.00 20.00     0.238 C 
ENDBRANCH   3   9
TORSDOF 2
