REMARK  0 active torsions:
REMARK  status: ('A' for Active; 'I' for Inactive)
ROOT
HETATM    1  C1  UNL     1     -32.570   7.703   3.925  1.00 20.00     0.022 A 
HETATM    2  C2  UNL     1     -32.781   5.496   1.720  1.00 20.00     0.120 C 
HETATM    3  C3  UNL     1     -32.144   7.693   1.593  1.00 20.00     0.101 C 
HETATM    4  C4  UNL     1     -33.042   8.053   2.725  1.00 20.00     0.025 A 
HETATM    5  C5  UNL     1     -33.591   5.693   2.782  1.00 20.00    -0.048 C 
HETATM    6  C6  UNL     1     -34.705   4.556   4.829  1.00 20.00     0.014 A 
HETATM    7  C7  UNL     1     -35.033   7.094   4.178  1.00 20.00     0.021 C 
HETATM    8  C8  UNL     1     -34.603   4.778   3.345  1.00 20.00     0.021 A 
HETATM    9  C9  UNL     1     -35.520   5.652   4.194  1.00 20.00    -0.005 A 
HETATM   10  C10 UNL     1     -33.730   7.006   3.450  1.00 20.00     0.004 A 
HETATM   11  N11 UNL     1     -32.001   6.482   1.133  1.00 20.00    -0.276 NA
ENDROOT
TORSDOF 0
