REMARK  1 active torsions:
REMARK  status: ('A' for Active; 'I' for Inactive)
REMARK    1  A    between atoms: C6_6  and  C10_10 
ROOT
HETATM    1  C1  UNL     1     -35.070   6.514   3.571  1.00 20.00     0.059 C 
HETATM    2  C10 UNL     1     -34.507   7.587   2.771  1.00 20.00     0.133 C 
HETATM    3  N11 UNL     1     -35.562   5.679   4.210  1.00 20.00    -0.197 NA
ENDROOT
BRANCH   2   4
HETATM    4  C6  UNL     1     -33.038   7.149   2.564  1.00 20.00    -0.025 C 
HETATM    5  C4  UNL     1     -32.197   8.385   2.181  1.00 20.00     0.011 C 
HETATM    6  C2  UNL     1     -32.309   8.517   0.661  1.00 20.00     0.002 C 
HETATM    7  C3  UNL     1     -32.915   7.211   0.145  1.00 20.00     0.010 C 
HETATM    8  C5  UNL     1     -32.843   6.214   1.321  1.00 20.00    -0.040 C 
HETATM    9  C7  UNL     1     -33.919   5.127   1.177  1.00 20.00     0.015 C 
HETATM   10  C8  UNL     1     -31.466   5.511   1.299  1.00 20.00     0.015 C 
HETATM   11  C9  UNL     1     -32.545   6.547   3.888  1.00 20.00     0.017 C 
ENDBRANCH   2   4
TORSDOF 1
