REMARK  0 active torsions:
REMARK  status: ('A' for Active; 'I' for Inactive)
ROOT
HETATM    1  C1  UNL     1     -32.162   7.942   2.492  1.00 20.00     0.096 A 
HETATM    2  C2  UNL     1     -32.299   5.971   1.400  1.00 20.00     0.096 A 
HETATM    3  C3  UNL     1     -33.196   7.227   3.040  1.00 20.00    -0.025 A 
HETATM    4  C4  UNL     1     -33.283   5.993   2.356  1.00 20.00    -0.025 A 
HETATM    5  C5  UNL     1     -34.164   7.475   4.124  1.00 20.00     0.114 A 
HETATM    6  C6  UNL     1     -34.334   5.051   2.779  1.00 20.00     0.114 A 
HETATM    7  N7  UNL     1     -31.622   7.166   1.491  1.00 20.00    -0.374 N 
HETATM    8  S8  UNL     1     -35.203   5.935   4.163  1.00 20.00    -0.160 SA
HETATM    9  H15 UNL     1     -30.841   7.435   0.909  1.00 20.00     0.164 HD
ENDROOT
TORSDOF 0
