REMARK  2 active torsions:
REMARK  status: ('A' for Active; 'I' for Inactive)
REMARK    1  A    between atoms: C1_1  and  C5_5 
REMARK    2  A    between atoms: C1_1  and  C6_6 
ROOT
HETATM    1  C1  UNL     1     -33.116   6.744   2.186  1.00 20.00     0.184 C 
HETATM    2  O7  UNL     1     -32.890   5.835   1.385  1.00 20.00    -0.293 OA
ENDROOT
BRANCH   1   3
HETATM    3  C5  UNL     1     -32.471   8.120   2.037  1.00 20.00     0.052 C 
HETATM    4  C2  UNL     1     -31.099   7.973   1.390  1.00 20.00     0.017 C 
HETATM    5  C3  UNL     1     -33.359   9.056   1.221  1.00 20.00     0.017 C 
ENDBRANCH   1   3
BRANCH   1   6
HETATM    6  C6  UNL     1     -34.062   6.544   3.359  1.00 20.00     0.235 C 
HETATM    7  C4  UNL     1     -35.492   6.892   2.985  1.00 20.00     0.079 C 
HETATM    8  F8  UNL     1     -33.710   7.307   4.431  1.00 20.00    -0.217 F 
HETATM    9 CL9  UNL     1     -33.938   4.832   3.832  1.00 20.00    -0.075 Cl
ENDBRANCH   1   6
TORSDOF 2
