REMARK  2 active torsions:
REMARK  status: ('A' for Active; 'I' for Inactive)
REMARK    1  A    between atoms: C1_1  and  C5_5 
REMARK    2  A    between atoms: C1_1  and  C6_6 
ROOT
HETATM    1  C1  UNL     1     -33.846   6.194   2.679  1.00 20.00     0.182 C 
HETATM    2  O7  UNL     1     -33.103   5.590   1.899  1.00 20.00    -0.293 OA
ENDROOT
BRANCH   1   3
HETATM    3  C5  UNL     1     -35.009   5.464   3.310  1.00 20.00     0.335 C 
HETATM    4  F8  UNL     1     -35.681   6.283   4.163  1.00 20.00    -0.225 F 
HETATM    5 CL9  UNL     1     -34.361   4.092   4.224  1.00 20.00    -0.081 Cl
ENDBRANCH   1   3
BRANCH   1   6
HETATM    6  C6  UNL     1     -33.596   7.670   3.053  1.00 20.00     0.014 C 
HETATM    7  C2  UNL     1     -33.341   7.823   4.558  1.00 20.00     0.023 C 
HETATM    8  C3  UNL     1     -34.835   8.507   2.684  1.00 20.00     0.023 C 
HETATM    9  C4  UNL     1     -32.394   8.190   2.254  1.00 20.00     0.023 C 
ENDBRANCH   1   6
TORSDOF 2
