REMARK  2 active torsions:
REMARK  status: ('A' for Active; 'I' for Inactive)
REMARK    1  A    between atoms: C1_1  and  C5_5 
REMARK    2  A    between atoms: C5_5  and  C6_6 
ROOT
HETATM    1  C5  UNL     1     -33.769   7.098   1.932  1.00 20.00     0.190 C 
HETATM    2 CL9  UNL     1     -32.724   8.549   1.910  1.00 20.00    -0.114 Cl
ENDROOT
BRANCH   1   3
HETATM    3  C1  UNL     1     -32.963   6.014   1.229  1.00 20.00     0.144 C 
HETATM    4  C2  UNL     1     -33.737   5.037   0.383  1.00 20.00     0.092 C 
HETATM    5  O7  UNL     1     -31.743   5.913   1.358  1.00 20.00    -0.297 OA
ENDBRANCH   1   3
BRANCH   1   6
HETATM    6  C6  UNL     1     -34.191   6.704   3.359  1.00 20.00     0.119 C 
HETATM    7  C3  UNL     1     -35.711   6.752   3.529  1.00 20.00     0.053 C 
HETATM    8  C4  UNL     1     -33.683   5.316   3.756  1.00 20.00     0.053 C 
HETATM    9  F8  UNL     1     -33.655   7.599   4.241  1.00 20.00    -0.242 F 
ENDBRANCH   1   6
TORSDOF 2
