REMARK  2 active torsions:
REMARK  status: ('A' for Active; 'I' for Inactive)
REMARK    1  A    between atoms: C6_6  and  S8_8 
REMARK    2  A    between atoms: C7_7  and  S9_9 
ROOT
HETATM    1  C1  UNL     1     -33.573   6.381   1.019  1.00 20.00     0.011 C 
HETATM    2  C2  UNL     1     -31.379   7.189   1.474  1.00 20.00     0.020 C 
HETATM    3  C3  UNL     1     -32.614   5.707   3.093  1.00 20.00     0.020 C 
HETATM    4  C4  UNL     1     -32.244   5.920   1.612  1.00 20.00    -0.012 C 
HETATM    5  C5  UNL     1     -33.707   7.558   1.995  1.00 20.00     0.013 C 
HETATM    6  C6  UNL     1     -32.380   8.325   1.772  1.00 20.00     0.050 C 
HETATM    7  C7  UNL     1     -33.602   6.858   3.373  1.00 20.00     0.050 C 
ENDROOT
BRANCH   6   8
HETATM    8  S8  UNL     1     -32.493   9.514   0.397  1.00 20.00    -0.177 SA
HETATM    9  H20 UNL     1     -31.203   9.873   0.422  1.00 20.00     0.102 HD
ENDBRANCH   6   8
BRANCH   7  10
HETATM   10  S9  UNL     1     -35.215   6.248   3.962  1.00 20.00    -0.177 SA
HETATM   11  H21 UNL     1     -34.737   5.633   5.051  1.00 20.00     0.102 HD
ENDBRANCH   7  10
TORSDOF 2
