REMARK  1 active torsions:
REMARK  status: ('A' for Active; 'I' for Inactive)
REMARK    1  A    between atoms: C1_1  and  C5_5 
ROOT
HETATM    1  C1  UNL     1     -32.660   8.007   1.836  1.00 20.00     0.141 A 
HETATM    2  C2  UNL     1     -33.963   6.743   3.035  1.00 20.00     0.187 A 
HETATM    3  N6  UNL     1     -33.751   7.994   2.688  1.00 20.00    -0.211 NA
HETATM    4  N7  UNL     1     -32.033   6.877   1.511  1.00 20.00    -0.193 NA
HETATM    5  S8  UNL     1     -32.843   5.657   2.321  1.00 20.00     0.046 SA
HETATM    6 CL9  UNL     1     -35.204   6.211   4.076  1.00 20.00    -0.053 Cl
ENDROOT
BRANCH   1   7
HETATM    7  C5  UNL     1     -32.167   9.347   1.262  1.00 20.00     0.058 A 
HETATM    8  C3  UNL     1     -33.147  10.212   0.504  1.00 20.00     0.013 A 
HETATM    9  C4  UNL     1     -32.063   9.496  -0.238  1.00 20.00     0.013 A 
ENDBRANCH   1   7
TORSDOF 1
