REMARK  3 active torsions:
REMARK  status: ('A' for Active; 'I' for Inactive)
REMARK    1  A    between atoms: C4_4  and  N8_8 
REMARK    2  A    between atoms: C6_6  and  C7_7 
REMARK    3  A    between atoms: C6_6  and  N8_8 
ROOT
HETATM    1  C1  UNL     1     -34.632   6.700   3.896  1.00 20.00     0.047 C 
HETATM    2  C2  UNL     1     -35.245   5.339   4.189  1.00 20.00     0.076 C 
HETATM    3  C3  UNL     1     -32.665   5.337   3.431  1.00 20.00     0.109 C 
HETATM    4  C4  UNL     1     -33.531   6.457   2.865  1.00 20.00     0.232 C 
HETATM    5  S9  UNL     1     -33.846   4.182   4.188  1.00 20.00    -0.167 SA
ENDROOT
BRANCH   4   6
HETATM    6  N8  UNL     1     -32.743   7.657   2.612  1.00 20.00     0.090 N 
HETATM    7  C5  UNL     1     -32.099   8.122   3.843  1.00 20.00     0.310 C 
BRANCH   6   8
HETATM    8  C6  UNL     1     -31.736   7.406   1.579  1.00 20.00     0.287 C 
BRANCH   8   9
HETATM    9  C7  UNL     1     -31.286   8.678   0.880  1.00 20.00     0.144 C 
HETATM   10 CL10 UNL     1     -32.653   9.500   0.088  1.00 20.00    -0.129 Cl
ENDBRANCH   8   9
ENDBRANCH   6   8
ENDBRANCH   4   6
TORSDOF 3
