REMARK  3 active torsions:
REMARK  status: ('A' for Active; 'I' for Inactive)
REMARK    1  A    between atoms: C10_10  and  C12_12 
REMARK    2  A    between atoms: C11_11  and  C12_12 
REMARK    3  A    between atoms: C12_12  and  N13_13 
ROOT
HETATM    1  C1  UNL     1     -32.748   9.694   0.292  1.00 20.00     0.130 C 
HETATM    2  C2  UNL     1     -33.382   9.651   1.663  1.00 20.00     0.106 C 
HETATM    3  C3  UNL     1     -32.196   8.391  -0.237  1.00 20.00     0.106 C 
HETATM    4  C8  UNL     1     -32.481   8.936   2.655  1.00 20.00     0.242 C 
HETATM    5  C9  UNL     1     -31.326   7.709   0.804  1.00 20.00     0.242 C 
HETATM    6  N13 UNL     1     -32.049   7.590   2.124  1.00 20.00    -0.065 N 
HETATM    7  O14 UNL     1     -32.778  10.710  -0.401  1.00 20.00    -0.298 OA
HETATM    8  H34 UNL     1     -31.321   7.231   2.816  1.00 20.00     0.280 HD
ENDROOT
BRANCH   6   9
HETATM    9  C12 UNL     1     -33.136   6.550   2.135  1.00 20.00     0.196 C 
BRANCH   9  10
HETATM   10  C10 UNL     1     -33.620   6.374   3.565  1.00 20.00     0.017 A 
HETATM   11  C4  UNL     1     -34.523   7.401   4.191  1.00 20.00     0.007 A 
HETATM   12  C5  UNL     1     -35.061   6.042   3.841  1.00 20.00     0.007 A 
ENDBRANCH   9  10
BRANCH   9  13
HETATM   13  C11 UNL     1     -32.577   5.262   1.553  1.00 20.00     0.017 A 
HETATM   14  C6  UNL     1     -33.469   4.067   1.361  1.00 20.00     0.007 A 
HETATM   15  C7  UNL     1     -32.963   4.827   0.167  1.00 20.00     0.007 A 
ENDBRANCH   9  13
ENDBRANCH   6   9
TORSDOF 3
