REMARK  2 active torsions:
REMARK  status: ('A' for Active; 'I' for Inactive)
REMARK    1  A    between atoms: C4_4  and  C5_5 
REMARK    2  A    between atoms: C5_5  and  C6_6 
ROOT
HETATM    1  C1  UNL     1     -34.598   6.698   3.625  1.00 20.00     0.033 C 
HETATM    2  C2  UNL     1     -34.250   5.256   3.930  1.00 20.00     0.168 C 
HETATM    3  C3  UNL     1     -33.197   5.860   1.941  1.00 20.00     0.172 C 
HETATM    4  C4  UNL     1     -33.431   7.119   2.758  1.00 20.00     0.012 C 
HETATM    5  O7  UNL     1     -33.530   4.754   2.794  1.00 20.00    -0.391 OA
ENDROOT
BRANCH   4   6
HETATM    6  C5  UNL     1     -33.694   8.353   1.918  1.00 20.00     0.017 C 
BRANCH   6   7
HETATM    7  C6  UNL     1     -32.468   8.743   1.109  1.00 20.00     0.085 C 
HETATM    8 BR8  UNL     1     -32.867  10.297   0.006  1.00 20.00    -0.096 Br
ENDBRANCH   6   7
ENDBRANCH   4   6
TORSDOF 2
