REMARK  1 active torsions:
REMARK  status: ('A' for Active; 'I' for Inactive)
REMARK    1  A    between atoms: C2_2  and  C4_4 
ROOT
HETATM    1  C1  UNL     1     -35.407   5.400   4.543  1.00 20.00     0.095 A 
HETATM    2  C3  UNL     1     -34.443   4.253   4.417  1.00 20.00     0.122 A 
HETATM    3  C4  UNL     1     -34.145   6.331   2.932  1.00 20.00     0.255 A 
HETATM    4  N5  UNL     1     -35.300   6.475   3.826  1.00 20.00    -0.280 NA
HETATM    5  S7  UNL     1     -33.274   4.772   3.161  1.00 20.00    -0.128 SA
ENDROOT
BRANCH   3   6
HETATM    6  C2  UNL     1     -33.211   7.447   3.250  1.00 20.00     0.253 C 
HETATM    7  O6  UNL     1     -33.125   7.912   4.383  1.00 20.00    -0.277 OA
HETATM    8 CL8  UNL     1     -32.311   7.964   1.857  1.00 20.00    -0.041 Cl
ENDBRANCH   3   6
TORSDOF 1
