REMARK  2 active torsions:
REMARK  status: ('A' for Active; 'I' for Inactive)
REMARK    1  A    between atoms: C2_2  and  C6_6 
REMARK       I    between atoms: C2_2  and  N7_7 
REMARK    2  A    between atoms: C5_5  and  C6_6 
ROOT
HETATM    1  C1  UNL     1     -32.269   8.388   1.190  1.00 20.00     0.166 C 
HETATM    2  C2  UNL     1     -32.361   6.267   1.743  1.00 20.00     0.244 C 
HETATM    3  N7  UNL     1     -32.094   7.592   2.034  1.00 20.00    -0.199 NA
HETATM    4  O8  UNL     1     -31.569   5.447   1.281  1.00 20.00    -0.271 OA
HETATM    5  S9  UNL     1     -32.495   9.498   0.069  1.00 20.00    -0.055 SA
ENDROOT
BRANCH   2   6
HETATM    6  C6  UNL     1     -33.800   5.895   2.062  1.00 20.00     0.109 C 
BRANCH   6   7
HETATM    7  C5  UNL     1     -34.160   6.037   3.500  1.00 20.00    -0.006 A 
HETATM    8  C3  UNL     1     -34.700   7.340   4.021  1.00 20.00     0.005 A 
HETATM    9  C4  UNL     1     -35.602   6.142   3.913  1.00 20.00     0.005 A 
ENDBRANCH   6   7
ENDBRANCH   2   6
TORSDOF 2
