REMARK  4 active torsions:
REMARK  status: ('A' for Active; 'I' for Inactive)
REMARK    1  A    between atoms: C5_5  and  C6_6 
REMARK    2  A    between atoms: C5_5  and  C7_7 
REMARK    3  A    between atoms: C6_6  and  C8_8 
REMARK    4  A    between atoms: C7_7  and  C9_9 
ROOT
HETATM    1  C5  UNL     1     -32.517   7.962   2.575  1.00 20.00     0.002 C 
ENDROOT
BRANCH   1   2
HETATM    2  C6  UNL     1     -33.519   7.502   3.644  1.00 20.00     0.020 C 
BRANCH   2   3
HETATM    3  C8  UNL     1     -34.434   6.340   3.234  1.00 20.00     0.078 C 
HETATM    4  C1  UNL     1     -35.379   5.884   4.338  1.00 20.00     0.026 C 
HETATM    5 CL10 UNL     1     -33.469   4.947   2.660  1.00 20.00    -0.125 Cl
ENDBRANCH   2   3
ENDBRANCH   1   2
BRANCH   1   6
HETATM    6  C7  UNL     1     -33.249   8.479   1.328  1.00 20.00     0.008 C 
BRANCH   6   7
HETATM    7  C9  UNL     1     -32.344   9.034   0.196  1.00 20.00    -0.051 C 
HETATM    8  C2  UNL     1     -32.582   8.284  -1.126  1.00 20.00     0.014 C 
HETATM    9  C3  UNL     1     -32.585  10.537  -0.024  1.00 20.00     0.014 C 
HETATM   10  C4  UNL     1     -30.874   8.831   0.614  1.00 20.00     0.014 C 
ENDBRANCH   6   7
ENDBRANCH   1   6
TORSDOF 4
