REMARK  2 active torsions:
REMARK  status: ('A' for Active; 'I' for Inactive)
REMARK    1  A    between atoms: C2_2  and  C8_8 
REMARK    2  A    between atoms: C6_6  and  C8_8 
ROOT
HETATM    1  C3  UNL     1     -31.743   5.814   1.188  1.00 20.00     0.002 C 
HETATM    2  C4  UNL     1     -31.403   7.216   1.700  1.00 20.00     0.006 C 
HETATM    3  C5  UNL     1     -33.024   5.389   1.910  1.00 20.00     0.020 C 
HETATM    4  C6  UNL     1     -32.688   7.742   2.348  1.00 20.00     0.007 C 
HETATM    5  C7  UNL     1     -33.246   6.458   2.975  1.00 20.00     0.086 C 
HETATM    6 CL9  UNL     1     -34.936   6.553   3.493  1.00 20.00    -0.125 Cl
ENDROOT
BRANCH   4   7
HETATM    7  C8  UNL     1     -33.590   8.413   1.311  1.00 20.00     0.032 C 
BRANCH   7   8
HETATM    8  C2  UNL     1     -32.913   9.590   0.675  1.00 20.00    -0.036 C 
HETATM    9  C1  UNL     1     -32.633   9.677  -0.630  1.00 20.00     0.007 C 
ENDBRANCH   7   8
ENDBRANCH   4   7
TORSDOF 2
