REMARK  2 active torsions:
REMARK  status: ('A' for Active; 'I' for Inactive)
REMARK    1  A    between atoms: C4_4  and  C8_8 
REMARK    2  A    between atoms: C8_8  and  C9_9 
ROOT
HETATM    1  C1  UNL     1     -33.769   7.547   4.129  1.00 20.00     0.002 C 
HETATM    2  C2  UNL     1     -33.131   8.571   3.186  1.00 20.00     0.006 C 
HETATM    3  C3  UNL     1     -34.111   6.328   3.271  1.00 20.00     0.020 C 
HETATM    4  C4  UNL     1     -33.240   7.960   1.785  1.00 20.00     0.004 C 
HETATM    5  C5  UNL     1     -33.221   6.448   2.037  1.00 20.00     0.086 C 
HETATM    6 CL10 UNL     1     -31.590   5.810   2.395  1.00 20.00    -0.125 Cl
ENDROOT
BRANCH   4   7
HETATM    7  C8  UNL     1     -32.201   8.493   0.811  1.00 20.00     0.010 C 
BRANCH   7   8
HETATM    8  C9  UNL     1     -32.595   9.830   0.158  1.00 20.00    -0.022 C 
HETATM    9  C6  UNL     1     -32.807  10.941   1.188  1.00 20.00     0.009 C 
HETATM   10  C7  UNL     1     -31.523  10.255  -0.848  1.00 20.00     0.009 C 
ENDBRANCH   7   8
ENDBRANCH   4   7
TORSDOF 2
