REMARK  1 active torsions:
REMARK  status: ('A' for Active; 'I' for Inactive)
REMARK    1  A    between atoms: C4_4  and  C9_9 
ROOT
HETATM    1  C1  UNL     1     -31.406   7.016   1.662  1.00 20.00     0.006 C 
HETATM    2  C2  UNL     1     -31.964   5.643   2.045  1.00 20.00     0.021 C 
HETATM    3  C3  UNL     1     -33.456   8.225   2.509  1.00 20.00     0.010 C 
HETATM    4  C4  UNL     1     -32.516   8.005   1.311  1.00 20.00    -0.014 C 
HETATM    5  C5  UNL     1     -33.638   6.983   3.410  1.00 20.00     0.000 C 
HETATM    6  C6  UNL     1     -33.391   5.692   2.610  1.00 20.00     0.086 C 
HETATM    7  C7  UNL     1     -35.014   7.041   4.080  1.00 20.00     0.011 C 
HETATM    8 CL10 UNL     1     -33.676   4.215   3.582  1.00 20.00    -0.125 Cl
ENDROOT
BRANCH   4   9
HETATM    9  C9  UNL     1     -31.941   9.333   0.822  1.00 20.00     0.000 C 
HETATM   10  C8  UNL     1     -33.019  10.290   0.434  1.00 20.00     0.005 C 
ENDBRANCH   4   9
TORSDOF 1
