REMARK  1 active torsions:
REMARK  status: ('A' for Active; 'I' for Inactive)
REMARK    1  A    between atoms: C6_6  and  C8_8 
ROOT
HETATM    1  C1  UNL     1     -33.761   3.237   4.282  1.00 20.00     0.012 C 
HETATM    2  C2  UNL     1     -33.968   4.384   3.995  1.00 20.00    -0.117 C 
HETATM    3  C8  UNL     1     -34.227   5.786   3.646  1.00 20.00     0.099 C 
ENDROOT
BRANCH   3   4
HETATM    4  C6  UNL     1     -33.068   6.382   2.862  1.00 20.00     0.015 C 
HETATM    5  C4  UNL     1     -33.062   7.913   2.889  1.00 20.00     0.007 C 
HETATM    6  C3  UNL     1     -32.323   8.345   1.619  1.00 20.00     0.002 C 
HETATM    7  C5  UNL     1     -32.103   7.075   0.797  1.00 20.00     0.020 C 
HETATM    8  C7  UNL     1     -33.107   6.081   1.365  1.00 20.00     0.087 C 
HETATM    9 CL9  UNL     1     -32.668   4.407   0.983  1.00 20.00    -0.125 Cl
ENDBRANCH   3   4
TORSDOF 1
