REMARK  2 active torsions:
REMARK  status: ('A' for Active; 'I' for Inactive)
REMARK    1  A    between atoms: C4_4  and  C8_8 
REMARK    2  A    between atoms: C8_8  and  C9_9 
ROOT
HETATM    1  C1  UNL     1     -32.823   4.536   2.381  1.00 20.00     0.002 C 
HETATM    2  C2  UNL     1     -32.635   5.745   1.460  1.00 20.00     0.006 C 
HETATM    3  C3  UNL     1     -33.502   5.060   3.646  1.00 20.00     0.020 C 
HETATM    4  C4  UNL     1     -33.025   6.966   2.298  1.00 20.00     0.004 C 
HETATM    5  C5  UNL     1     -34.097   6.398   3.227  1.00 20.00     0.086 C 
HETATM    6 CL10 UNL     1     -34.430   7.440   4.620  1.00 20.00    -0.125 Cl
ENDROOT
BRANCH   4   7
HETATM    7  C8  UNL     1     -33.497   8.136   1.447  1.00 20.00     0.010 C 
BRANCH   7   8
HETATM    8  C9  UNL     1     -32.349   8.993   0.886  1.00 20.00    -0.022 C 
HETATM    9  C6  UNL     1     -31.403   8.188  -0.005  1.00 20.00     0.009 C 
HETATM   10  C7  UNL     1     -32.919  10.176   0.099  1.00 20.00     0.009 C 
ENDBRANCH   7   8
ENDBRANCH   4   7
TORSDOF 2
