REMARK  3 active torsions:
REMARK  status: ('A' for Active; 'I' for Inactive)
REMARK    1  A    between atoms: C4_4  and  C7_7 
REMARK    2  A    between atoms: C7_7  and  C9_9 
REMARK    3  A    between atoms: C8_8  and  C9_9 
ROOT
HETATM    1  C1  UNL     1     -34.436   5.457   3.701  1.00 20.00     0.002 C 
HETATM    2  C2  UNL     1     -33.215   5.551   2.782  1.00 20.00     0.006 C 
HETATM    3  C3  UNL     1     -34.982   6.880   3.834  1.00 20.00     0.020 C 
HETATM    4  C4  UNL     1     -33.145   7.016   2.339  1.00 20.00     0.004 C 
HETATM    5  C5  UNL     1     -33.803   7.786   3.490  1.00 20.00     0.086 C 
HETATM    6 CL10 UNL     1     -32.745   7.972   4.921  1.00 20.00    -0.125 Cl
ENDROOT
BRANCH   4   7
HETATM    7  C7  UNL     1     -31.770   7.465   1.954  1.00 20.00     0.006 C 
BRANCH   7   8
HETATM    8  C9  UNL     1     -31.767   8.919   1.485  1.00 20.00     0.000 C 
BRANCH   8   9
HETATM    9  C8  UNL     1     -32.697   9.119   0.289  1.00 20.00    -0.005 C 
HETATM   10  C6  UNL     1     -32.724  10.572  -0.159  1.00 20.00     0.005 C 
ENDBRANCH   8   9
ENDBRANCH   7   8
ENDBRANCH   4   7
TORSDOF 3
