REMARK  1 active torsions:
REMARK  status: ('A' for Active; 'I' for Inactive)
REMARK    1  A    between atoms: C6_6  and  C8_8 
ROOT
HETATM    1  C1  UNL     1     -32.634  10.002  -0.326  1.00 20.00     0.012 C 
HETATM    2  C2  UNL     1     -32.564   9.323   0.662  1.00 20.00    -0.117 C 
HETATM    3  C8  UNL     1     -32.473   8.496   1.871  1.00 20.00     0.098 C 
ENDROOT
BRANCH   3   4
HETATM    4  C6  UNL     1     -33.731   7.644   2.055  1.00 20.00     0.011 C 
HETATM    5  C4  UNL     1     -33.942   6.701   0.868  1.00 20.00     0.007 C 
HETATM    6  C3  UNL     1     -33.174   5.424   1.206  1.00 20.00     0.002 C 
HETATM    7  C5  UNL     1     -32.862   5.477   2.703  1.00 20.00     0.016 C 
HETATM    8  C7  UNL     1     -33.594   6.697   3.246  1.00 20.00     0.062 C 
HETATM    9 BR9  UNL     1     -35.364   6.174   3.902  1.00 20.00    -0.091 Br
ENDBRANCH   3   4
TORSDOF 1
