REMARK  2 active torsions:
REMARK  status: ('A' for Active; 'I' for Inactive)
REMARK    1  A    between atoms: C8_8  and  C9_9 
REMARK    2  A    between atoms: C9_9  and  N11_11 
ROOT
HETATM    1  C1  UNL     1     -33.593   7.415   3.394  1.00 20.00     0.071 C 
HETATM    2  C4  UNL     1     -32.871   5.287   2.250  1.00 20.00     0.028 A 
HETATM    3  C5  UNL     1     -33.840   5.978   1.337  1.00 20.00     0.028 A 
HETATM    4  C8  UNL     1     -32.961   6.796   2.257  1.00 20.00     0.075 A 
HETATM    5  N10 UNL     1     -34.102   7.913   4.310  1.00 20.00    -0.196 NA
ENDROOT
BRANCH   4   6
HETATM    6  C9  UNL     1     -31.839   7.569   1.651  1.00 20.00     0.296 C 
BRANCH   6   7
HETATM    7  N11 UNL     1     -32.341   8.630   0.770  1.00 20.00     0.090 N 
HETATM    8  C6  UNL     1     -32.795   9.782   1.550  1.00 20.00     0.272 C 
HETATM    9  C2  UNL     1     -32.829  10.899   0.518  1.00 20.00     0.032 C 
HETATM   10  C3  UNL     1     -31.829  10.482  -0.556  1.00 20.00     0.032 C 
HETATM   11  C7  UNL     1     -31.270   9.149  -0.081  1.00 20.00     0.272 C 
ENDBRANCH   6   7
ENDBRANCH   4   6
TORSDOF 2
