REMARK  2 active torsions:
REMARK  status: ('A' for Active; 'I' for Inactive)
REMARK    1  A    between atoms: C4_4  and  C7_7 
REMARK    2  A    between atoms: C7_7  and  C8_8 
ROOT
HETATM    1  C1  UNL     1     -32.391   7.573   2.559  1.00 20.00     0.002 C 
HETATM    2  C2  UNL     1     -32.625   6.306   1.732  1.00 20.00     0.006 C 
HETATM    3  C3  UNL     1     -33.538   7.649   3.570  1.00 20.00     0.020 C 
HETATM    4  C4  UNL     1     -33.617   5.464   2.542  1.00 20.00     0.004 C 
HETATM    5  C5  UNL     1     -34.511   6.556   3.140  1.00 20.00     0.086 C 
HETATM    6 CL9  UNL     1     -35.556   6.024   4.466  1.00 20.00    -0.125 Cl
ENDROOT
BRANCH   4   7
HETATM    7  C7  UNL     1     -32.885   4.583   3.558  1.00 20.00     0.005 C 
BRANCH   7   8
HETATM    8  C8  UNL     1     -33.770   3.437   4.043  1.00 20.00    -0.004 C 
HETATM    9  C6  UNL     1     -33.034   2.546   5.032  1.00 20.00     0.005 C 
ENDBRANCH   7   8
ENDBRANCH   4   7
TORSDOF 2
