REMARK  0 active torsions:
REMARK  status: ('A' for Active; 'I' for Inactive)
ROOT
HETATM    1  C1  UNL     1     -34.561   7.918   2.981  1.00 20.00     0.019 A 
HETATM    2  C2  UNL     1     -33.536   8.286   2.105  1.00 20.00    -0.033 A 
HETATM    3  C3  UNL     1     -34.616   6.627   3.491  1.00 20.00    -0.021 A 
HETATM    4  C4  UNL     1     -32.574   7.321   1.788  1.00 20.00     0.042 A 
HETATM    5  C5  UNL     1     -33.627   5.740   3.107  1.00 20.00     0.132 A 
HETATM    6  C6  UNL     1     -33.457   9.697   1.590  1.00 20.00     0.040 C 
HETATM    7  C7  UNL     1     -31.454   7.626   0.828  1.00 20.00     0.060 C 
HETATM    8  C8  UNL     1     -32.518   9.850   0.394  1.00 20.00     0.005 C 
HETATM    9  C9  UNL     1     -31.204   9.121   0.649  1.00 20.00     0.006 C 
HETATM   10  C10 UNL     1     -35.717   6.248   4.420  1.00 20.00     0.051 C 
HETATM   11  N11 UNL     1     -32.614   6.053   2.270  1.00 20.00    -0.240 NA
HETATM   12 CL12 UNL     1     -33.584   4.114   3.665  1.00 20.00    -0.062 Cl
ENDROOT
TORSDOF 0
