REMARK  3 active torsions:
REMARK  status: ('A' for Active; 'I' for Inactive)
REMARK    1  A    between atoms: C4_4  and  C10_10 
REMARK    2  A    between atoms: C5_5  and  C11_11 
REMARK    3  A    between atoms: C6_6  and  C12_12 
ROOT
HETATM    1  C7  UNL     1     -33.394   7.832   3.000  1.00 20.00     0.009 C 
HETATM    2  C8  UNL     1     -34.254   6.638   2.577  1.00 20.00     0.010 C 
HETATM    3  C9  UNL     1     -31.412   6.830   1.771  1.00 20.00     0.017 C 
HETATM    4  C10 UNL     1     -32.231   8.105   2.038  1.00 20.00     0.008 C 
HETATM    5  C11 UNL     1     -33.431   5.358   2.360  1.00 20.00     0.015 C 
HETATM    6  C12 UNL     1     -32.279   5.624   1.362  1.00 20.00     0.015 C 
ENDROOT
BRANCH   4   7
HETATM    7  C4  UNL     1     -32.716   8.742   0.768  1.00 20.00    -0.032 C 
HETATM    8  C1  UNL     1     -32.370   9.970   0.367  1.00 20.00     0.007 C 
ENDBRANCH   4   7
BRANCH   6   9
HETATM    9  C6  UNL     1     -31.433   4.405   1.129  1.00 20.00    -0.031 C 
HETATM   10  C3  UNL     1     -31.311   3.794  -0.054  1.00 20.00     0.007 C 
ENDBRANCH   6   9
BRANCH   5  11
HETATM   11  C5  UNL     1     -32.979   4.799   3.682  1.00 20.00    -0.031 C 
HETATM   12  C2  UNL     1     -33.360   3.610   4.161  1.00 20.00     0.007 C 
ENDBRANCH   5  11
TORSDOF 3
