REMARK  2 active torsions:
REMARK  status: ('A' for Active; 'I' for Inactive)
REMARK    1  A    between atoms: C1_1  and  C7_7 
REMARK    2  A    between atoms: C7_7  and  N8_8 
ROOT
HETATM    1  C2  UNL     1     -33.997   7.563   3.672  1.00 20.00     0.040 C 
HETATM    2  C3  UNL     1     -33.601   8.136   2.305  1.00 20.00     0.273 C 
HETATM    3  C4  UNL     1     -32.100   6.612   1.087  1.00 20.00     0.283 C 
HETATM    4  C5  UNL     1     -34.288   6.066   3.734  1.00 20.00     0.075 C 
HETATM    5  C6  UNL     1     -32.915   5.370   1.455  1.00 20.00     0.104 C 
HETATM    6  N8  UNL     1     -32.220   7.785   1.963  1.00 20.00     0.095 N 
HETATM    7  S10 UNL     1     -32.910   4.993   3.231  1.00 20.00    -0.167 SA
ENDROOT
BRANCH   6   8
HETATM    8  C7  UNL     1     -31.513   8.921   1.368  1.00 20.00     0.341 C 
BRANCH   8   9
HETATM    9  C1  UNL     1     -32.239   9.330   0.118  1.00 20.00     0.261 C 
HETATM   10  O9  UNL     1     -33.134  10.171   0.118  1.00 20.00    -0.305 OA
ENDBRANCH   8   9
ENDBRANCH   6   8
TORSDOF 2
