REMARK  3 active torsions:
REMARK  status: ('A' for Active; 'I' for Inactive)
REMARK    1  A    between atoms: C1_1  and  C7_7 
REMARK    2  A    between atoms: C5_5  and  N8_8 
REMARK    3  A    between atoms: C7_7  and  N8_8 
ROOT
HETATM    1  C2  UNL     1     -34.126   6.597   3.619  1.00 20.00     0.047 C 
HETATM    2  C3  UNL     1     -34.856   5.374   4.151  1.00 20.00     0.076 C 
HETATM    3  C4  UNL     1     -32.595   4.897   2.777  1.00 20.00     0.109 C 
HETATM    4  C5  UNL     1     -33.382   6.136   2.367  1.00 20.00     0.233 C 
HETATM    5  S10 UNL     1     -33.713   3.989   3.885  1.00 20.00    -0.167 SA
ENDROOT
BRANCH   4   6
HETATM    6  N8  UNL     1     -32.500   7.172   1.841  1.00 20.00     0.096 N 
HETATM    7  C6  UNL     1     -31.803   6.698   0.643  1.00 20.00     0.310 C 
BRANCH   6   8
HETATM    8  C7  UNL     1     -33.256   8.389   1.539  1.00 20.00     0.341 C 
BRANCH   8   9
HETATM    9  C1  UNL     1     -32.303   9.419   1.003  1.00 20.00     0.261 C 
HETATM   10  O9  UNL     1     -32.429   9.919  -0.112  1.00 20.00    -0.305 OA
ENDBRANCH   8   9
ENDBRANCH   6   8
ENDBRANCH   4   6
TORSDOF 3
