REMARK  3 active torsions:
REMARK  status: ('A' for Active; 'I' for Inactive)
REMARK    1  A    between atoms: C1_1  and  C3_3 
REMARK    2  A    between atoms: C1_1  and  C4_4 
REMARK    3  A    between atoms: C3_3  and  C5_5 
ROOT
HETATM    1  C1  UNL     1     -33.168   7.093   2.538  1.00 20.00     0.140 C 
HETATM    2  O6  UNL     1     -33.473   5.952   2.194  1.00 20.00    -0.297 OA
ENDROOT
BRANCH   1   3
HETATM    3  C3  UNL     1     -33.955   7.852   3.598  1.00 20.00     0.079 C 
BRANCH   3   4
HETATM    4  C5  UNL     1     -34.557   6.960   4.681  1.00 20.00     0.003 C 
HETATM    5  C2  UNL     1     -35.526   5.929   4.119  1.00 20.00     0.005 C 
ENDBRANCH   3   4
ENDBRANCH   1   3
BRANCH   1   6
HETATM    6  C4  UNL     1     -32.019   7.860   1.920  1.00 20.00     0.192 C 
HETATM    7 CL7  UNL     1     -32.598   9.339   1.139  1.00 20.00    -0.123 Cl
ENDBRANCH   1   6
TORSDOF 3
