REMARK  2 active torsions:
REMARK  status: ('A' for Active; 'I' for Inactive)
REMARK    1  A    between atoms: C2_2  and  C3_3 
REMARK    2  A    between atoms: C3_3  and  C8_8 
ROOT
HETATM    1  C3  UNL     1     -33.816   7.456   3.225  1.00 20.00     0.159 C 
HETATM    2  O11 UNL     1     -33.888   8.381   4.049  1.00 20.00    -0.292 OA
ENDROOT
BRANCH   1   3
HETATM    3  C2  UNL     1     -34.091   6.106   3.602  1.00 20.00    -0.016 C 
HETATM    4  C1  UNL     1     -33.242   5.075   3.530  1.00 20.00    -0.016 C 
HETATM    5  C4  UNL     1     -33.876   3.805   3.989  1.00 20.00     0.028 C 
HETATM    6  C6  UNL     1     -35.149   4.291   4.681  1.00 20.00     0.009 C 
HETATM    7  C5  UNL     1     -35.429   5.687   4.123  1.00 20.00     0.042 C 
ENDBRANCH   1   3
BRANCH   1   8
HETATM    8  C8  UNL     1     -33.423   7.740   1.790  1.00 20.00     0.064 A 
HETATM    9  C7  UNL     1     -31.996   7.581   1.420  1.00 20.00     0.018 A 
HETATM   10  C9  UNL     1     -32.597   8.957   1.531  1.00 20.00    -0.006 A 
HETATM   11  C10 UNL     1     -32.863   9.759   0.304  1.00 20.00     0.011 C 
ENDBRANCH   1   8
TORSDOF 2
