REMARK  2 active torsions:
REMARK  status: ('A' for Active; 'I' for Inactive)
REMARK    1  A    between atoms: C2_2  and  C3_3 
REMARK    2  A    between atoms: C3_3  and  C9_9 
ROOT
HETATM    1  C1  UNL     1     -33.173   5.950   1.980  1.00 20.00    -0.016 C 
HETATM    2  C2  UNL     1     -33.044   7.135   2.593  1.00 20.00    -0.016 C 
HETATM    3  C4  UNL     1     -34.157   4.910   2.431  1.00 20.00     0.028 C 
HETATM    4  C5  UNL     1     -33.877   7.564   3.763  1.00 20.00     0.042 C 
HETATM    5  C6  UNL     1     -34.757   5.199   3.810  1.00 20.00     0.004 C 
HETATM    6  C7  UNL     1     -35.109   6.676   3.966  1.00 20.00     0.005 C 
ENDROOT
BRANCH   2   7
HETATM    7  C3  UNL     1     -32.043   8.068   2.070  1.00 20.00     0.159 C 
HETATM    8  O12 UNL     1     -31.112   8.454   2.781  1.00 20.00    -0.292 OA
BRANCH   7   9
HETATM    9  C9  UNL     1     -32.182   8.530   0.642  1.00 20.00     0.064 A 
HETATM   10  C8  UNL     1     -31.089   9.361   0.067  1.00 20.00     0.018 A 
HETATM   11  C10 UNL     1     -32.433   9.970   0.354  1.00 20.00    -0.006 A 
HETATM   12  C11 UNL     1     -32.569  11.009   1.414  1.00 20.00     0.011 C 
ENDBRANCH   7   9
ENDBRANCH   2   7
TORSDOF 2
