REMARK  2 active torsions:
REMARK  status: ('A' for Active; 'I' for Inactive)
REMARK    1  A    between atoms: C2_2  and  C3_3 
REMARK    2  A    between atoms: C3_3  and  C11_11 
ROOT
HETATM    1  C7  UNL     1     -32.456  10.026  -0.189  1.00 20.00     0.005 C 
HETATM    2  C8  UNL     1     -32.834   9.977   1.301  1.00 20.00     0.006 C 
HETATM    3  C9  UNL     1     -32.729   7.538  -0.367  1.00 20.00     0.017 C 
HETATM    4  C10 UNL     1     -30.995   8.521   0.933  1.00 20.00     0.010 C 
HETATM    5  C11 UNL     1     -33.166   7.510   1.107  1.00 20.00     0.065 C 
HETATM    6  C12 UNL     1     -31.713   8.695  -0.403  1.00 20.00    -0.013 C 
HETATM    7  C13 UNL     1     -32.290   8.608   1.747  1.00 20.00    -0.003 C 
ENDROOT
BRANCH   5   8
HETATM    8  C3  UNL     1     -32.918   6.170   1.729  1.00 20.00     0.159 C 
HETATM    9  O14 UNL     1     -32.029   5.421   1.331  1.00 20.00    -0.292 OA
BRANCH   8  10
HETATM   10  C2  UNL     1     -33.762   5.773   2.812  1.00 20.00    -0.016 C 
HETATM   11  C1  UNL     1     -34.766   6.485   3.335  1.00 20.00    -0.016 C 
HETATM   12  C4  UNL     1     -35.418   5.768   4.470  1.00 20.00     0.028 C 
HETATM   13  C6  UNL     1     -34.869   4.348   4.334  1.00 20.00     0.009 C 
HETATM   14  C5  UNL     1     -33.583   4.465   3.515  1.00 20.00     0.042 C 
ENDBRANCH   8  10
ENDBRANCH   5   8
TORSDOF 2
