REMARK  4 active torsions:
REMARK  status: ('A' for Active; 'I' for Inactive)
REMARK    1  A    between atoms: C2_2  and  C11_11 
REMARK    2  A    between atoms: C9_9  and  C10_10 
REMARK    3  A    between atoms: C10_10  and  C11_11 
REMARK    4  A    between atoms: C11_11  and  O12_12 
ROOT
HETATM    1  C11 UNL     1     -34.767   5.378   3.804  1.00 20.00     0.147 C 
ENDROOT
BRANCH   1   2
HETATM    2  C2  UNL     1     -33.785   6.281   3.119  1.00 20.00    -0.055 C 
HETATM    3  C1  UNL     1     -32.989   5.845   2.126  1.00 20.00    -0.021 C 
HETATM    4  C3  UNL     1     -32.021   6.723   1.390  1.00 20.00     0.027 C 
HETATM    5  C5  UNL     1     -32.250   8.214   1.637  1.00 20.00     0.004 C 
HETATM    6  C6  UNL     1     -32.521   8.489   3.112  1.00 20.00     0.005 C 
HETATM    7  C4  UNL     1     -33.742   7.708   3.606  1.00 20.00     0.036 C 
ENDBRANCH   1   2
BRANCH   1   8
HETATM    8  C10 UNL     1     -34.183   4.771   5.072  1.00 20.00     0.041 C 
BRANCH   8   9
HETATM    9  C9  UNL     1     -33.247   3.606   4.789  1.00 20.00    -0.012 A 
HETATM   10  C7  UNL     1     -32.925   2.612   5.870  1.00 20.00     0.005 A 
HETATM   11  C8  UNL     1     -33.786   2.205   4.707  1.00 20.00     0.005 A 
ENDBRANCH   8   9
ENDBRANCH   1   8
BRANCH   1  12
HETATM   12  O12 UNL     1     -35.860   6.212   4.151  1.00 20.00    -0.391 OA
HETATM   13  H30 UNL     1     -36.514   5.649   4.598  1.00 20.00     0.210 HD
ENDBRANCH   1  12
TORSDOF 4
