REMARK  3 active torsions:
REMARK  status: ('A' for Active; 'I' for Inactive)
REMARK    1  A    between atoms: C6_6  and  N10_10 
REMARK    2  A    between atoms: C7_7  and  C8_8 
REMARK    3  A    between atoms: C8_8  and  N10_10 
ROOT
HETATM    1  C1  UNL     1     -34.047   7.528   4.181  1.00 20.00     0.094 C 
HETATM    2  C2  UNL     1     -34.795   5.178   4.220  1.00 20.00     0.059 C 
HETATM    3  C6  UNL     1     -34.293   6.333   3.364  1.00 20.00     0.322 C 
HETATM    4  N9  UNL     1     -33.854   8.473   4.827  1.00 20.00    -0.195 NA
ENDROOT
BRANCH   3   5
HETATM    5  N10 UNL     1     -33.075   5.957   2.653  1.00 20.00     0.105 N 
HETATM    6  H26 UNL     1     -33.148   4.978   2.369  1.00 20.00     0.318 HD
BRANCH   5   7
HETATM    7  C8  UNL     1     -32.871   6.790   1.485  1.00 20.00     0.221 C 
HETATM    8  C5  UNL     1     -31.910   6.082   0.533  1.00 20.00     0.043 C 
BRANCH   7   9
HETATM    9  C7  UNL     1     -32.391   8.203   1.890  1.00 20.00     0.010 C 
HETATM   10  C3  UNL     1     -31.048   8.216   2.626  1.00 20.00     0.011 C 
HETATM   11  C4  UNL     1     -32.326   9.137   0.676  1.00 20.00     0.011 C 
ENDBRANCH   7   9
ENDBRANCH   5   7
ENDBRANCH   3   5
TORSDOF 3
