REMARK  5 active torsions:
REMARK  status: ('A' for Active; 'I' for Inactive)
REMARK    1  A    between atoms: C5_5  and  N10_10 
REMARK    2  A    between atoms: C6_6  and  C7_7 
REMARK    3  A    between atoms: C6_6  and  C8_8 
REMARK    4  A    between atoms: C7_7  and  C9_9 
REMARK    5  A    between atoms: C8_8  and  N10_10 
ROOT
HETATM    1  C1  UNL     1     -34.410   4.232   4.391  1.00 20.00     0.013 C 
HETATM    2  C2  UNL     1     -34.665   5.405   4.370  1.00 20.00    -0.087 C 
HETATM    3  C5  UNL     1     -34.982   6.835   4.346  1.00 20.00     0.362 C 
ENDROOT
BRANCH   3   4
HETATM    4  N10 UNL     1     -33.759   7.633   4.247  1.00 20.00     0.094 N 
HETATM    5  H27 UNL     1     -33.970   8.586   4.565  1.00 20.00     0.317 HD
BRANCH   4   6
HETATM    6  C8  UNL     1     -33.249   7.659   2.903  1.00 20.00     0.270 C 
BRANCH   6   7
HETATM    7  C6  UNL     1     -31.933   8.423   2.794  1.00 20.00     0.030 C 
BRANCH   7   8
HETATM    8  C7  UNL     1     -31.374   8.427   1.366  1.00 20.00     0.005 C 
BRANCH   8   9
HETATM    9  C9  UNL     1     -32.292   9.135   0.352  1.00 20.00    -0.023 C 
HETATM   10  C3  UNL     1     -32.494  10.595   0.766  1.00 20.00     0.009 C 
HETATM   11  C4  UNL     1     -31.744   9.075  -1.074  1.00 20.00     0.009 C 
ENDBRANCH   8   9
ENDBRANCH   7   8
ENDBRANCH   6   7
ENDBRANCH   4   6
ENDBRANCH   3   4
TORSDOF 5
