REMARK  3 active torsions:
REMARK  status: ('A' for Active; 'I' for Inactive)
REMARK    1  A    between atoms: C3_3  and  C5_5 
REMARK    2  A    between atoms: C5_5  and  C6_6 
REMARK    3  A    between atoms: C6_6  and  S9_9 
ROOT
HETATM    1  C1  UNL     1     -35.331   6.333   3.971  1.00 20.00     0.281 C 
HETATM    2  C2  UNL     1     -34.386   5.141   3.946  1.00 20.00     0.106 C 
HETATM    3  C3  UNL     1     -33.702   7.265   2.548  1.00 20.00     0.282 C 
HETATM    4  N7  UNL     1     -34.523   7.530   3.732  1.00 20.00     0.098 N 
HETATM    5  S8  UNL     1     -33.274   5.495   2.566  1.00 20.00    -0.132 SA
HETATM    6  H22 UNL     1     -35.118   8.342   3.579  1.00 20.00     0.317 HD
ENDROOT
BRANCH   3   7
HETATM    7  C5  UNL     1     -32.451   8.129   2.566  1.00 20.00     0.056 C 
BRANCH   7   8
HETATM    8  C6  UNL     1     -31.564   7.839   1.360  1.00 20.00     0.076 C 
BRANCH   8   9
HETATM    9  S9  UNL     1     -32.459   8.170  -0.184  1.00 20.00    -0.173 SA
HETATM   10  C4  UNL     1     -32.224   9.961  -0.245  1.00 20.00     0.089 C 
ENDBRANCH   8   9
ENDBRANCH   7   8
ENDBRANCH   3   7
TORSDOF 3
