REMARK  1 active torsions:
REMARK  status: ('A' for Active; 'I' for Inactive)
REMARK    1  A    between atoms: C9_9  and  O11_11 
ROOT
HETATM    1  C1  UNL     1     -33.378   5.109   2.249  1.00 20.00     0.052 A 
HETATM    2  C2  UNL     1     -31.591   6.559   1.457  1.00 20.00     0.049 A 
HETATM    3  C3  UNL     1     -33.940   6.205   2.884  1.00 20.00    -0.020 A 
HETATM    4  C4  UNL     1     -33.341   7.469   2.803  1.00 20.00    -0.043 A 
HETATM    5  C5  UNL     1     -32.170   7.662   2.089  1.00 20.00    -0.052 A 
HETATM    6  C6  UNL     1     -32.190   5.292   1.537  1.00 20.00     0.117 A 
HETATM    7  C7  UNL     1     -34.157   8.495   3.526  1.00 20.00     0.042 C 
HETATM    8  C8  UNL     1     -35.024   7.602   4.424  1.00 20.00     0.041 C 
HETATM    9  C9  UNL     1     -35.216   6.278   3.666  1.00 20.00     0.152 C 
HETATM   10  C10 UNL     1     -31.534   9.004   1.983  1.00 20.00     0.049 C 
HETATM   11  F12 UNL     1     -31.620   4.250   0.917  1.00 20.00    -0.206 F 
ENDROOT
BRANCH   9  12
HETATM   12  O11 UNL     1     -35.351   5.195   4.565  1.00 20.00    -0.391 OA
HETATM   13  H23 UNL     1     -36.197   5.312   5.032  1.00 20.00     0.210 HD
ENDBRANCH   9  12
TORSDOF 1
