REMARK  3 active torsions:
REMARK  status: ('A' for Active; 'I' for Inactive)
REMARK    1  A    between atoms: C3_3  and  C4_4 
REMARK    2  A    between atoms: C3_3  and  C5_5 
REMARK    3  A    between atoms: C5_5  and  C6_6 
ROOT
HETATM    1  C1  UNL     1     -32.508  10.129   0.260  1.00 20.00     0.012 C 
HETATM    2  C2  UNL     1     -32.339   9.316   1.127  1.00 20.00    -0.110 C 
HETATM    3  C4  UNL     1     -32.129   8.328   2.192  1.00 20.00     0.171 C 
ENDROOT
BRANCH   3   4
HETATM    4  C3  UNL     1     -32.771   6.988   1.880  1.00 20.00     0.146 C 
HETATM    5  O7  UNL     1     -32.167   6.084   1.305  1.00 20.00    -0.297 OA
BRANCH   4   6
HETATM    6  C5  UNL     1     -34.216   6.837   2.328  1.00 20.00     0.196 C 
BRANCH   6   7
HETATM    7  C6  UNL     1     -34.350   6.256   3.717  1.00 20.00     0.394 C 
HETATM    8  F8  UNL     1     -35.654   6.136   4.052  1.00 20.00    -0.171 F 
HETATM    9  F9  UNL     1     -33.795   5.028   3.795  1.00 20.00    -0.171 F 
HETATM   10  F10 UNL     1     -33.764   7.044   4.642  1.00 20.00    -0.171 F 
ENDBRANCH   6   7
ENDBRANCH   4   6
ENDBRANCH   3   4
TORSDOF 3
