REMARK  3 active torsions:
REMARK  status: ('A' for Active; 'I' for Inactive)
REMARK    1  A    between atoms: C2_2  and  C11_11 
REMARK    2  A    between atoms: C7_7  and  C11_11 
REMARK    3  A    between atoms: C8_8  and  C12_12 
ROOT
HETATM    1  C1  UNL     1     -33.520   3.546   4.682  1.00 20.00    -0.111 C 
HETATM    2  C2  UNL     1     -34.190   4.506   4.418  1.00 20.00    -0.106 C 
HETATM    3  C9  UNL     1     -32.703   2.376   5.003  1.00 20.00     0.112 C 
ENDROOT
BRANCH   2   4
HETATM    4  C11 UNL     1     -35.015   5.675   4.100  1.00 20.00     0.106 C 
BRANCH   4   5
HETATM    5  C7  UNL     1     -34.258   6.655   3.211  1.00 20.00     0.067 C 
HETATM    6  C3  UNL     1     -33.340   7.550   4.040  1.00 20.00     0.132 C 
HETATM    7  C4  UNL     1     -32.089   8.069   3.359  1.00 20.00     0.079 C 
HETATM    8  O13 UNL     1     -33.587   7.845   5.209  1.00 20.00    -0.298 OA
HETATM    9  C5  UNL     1     -32.324   8.203   1.861  1.00 20.00     0.012 C 
HETATM   10  C8  UNL     1     -32.706   6.866   1.200  1.00 20.00    -0.014 C 
HETATM   11  C6  UNL     1     -33.415   5.906   2.174  1.00 20.00     0.017 C 
BRANCH  10  12
HETATM   12  C12 UNL     1     -31.487   6.182   0.580  1.00 20.00     0.000 C 
HETATM   13  C10 UNL     1     -31.859   4.911  -0.111  1.00 20.00     0.005 C 
ENDBRANCH  10  12
ENDBRANCH   4   5
ENDBRANCH   2   4
TORSDOF 3
