REMARK  4 active torsions:
REMARK  status: ('A' for Active; 'I' for Inactive)
REMARK    1  A    between atoms: C2_2  and  C5_5 
REMARK    2  A    between atoms: C2_2  and  C9_9 
REMARK    3  A    between atoms: C7_7  and  C9_9 
REMARK    4  A    between atoms: C8_8  and  C9_9 
ROOT
HETATM    1  C1  UNL     1     -34.756   6.573   4.126  1.00 20.00     0.059 C 
HETATM    2  C7  UNL     1     -33.699   7.540   3.793  1.00 20.00     0.136 C 
HETATM    3  N10 UNL     1     -35.590   5.810   4.391  1.00 20.00    -0.197 NA
ENDROOT
BRANCH   2   4
HETATM    4  C9  UNL     1     -32.650   6.986   2.813  1.00 20.00     0.068 C 
BRANCH   4   5
HETATM    5  C2  UNL     1     -31.847   8.132   2.204  1.00 20.00     0.136 C 
HETATM    6  O11 UNL     1     -30.855   8.630   2.724  1.00 20.00    -0.297 OA
BRANCH   5   7
HETATM    7  C5  UNL     1     -32.347   8.666   0.902  1.00 20.00     0.056 A 
HETATM    8  C3  UNL     1     -31.667   9.855   0.312  1.00 20.00     0.013 A 
HETATM    9  C4  UNL     1     -31.491   8.502  -0.309  1.00 20.00     0.013 A 
ENDBRANCH   5   7
ENDBRANCH   4   5
BRANCH   4  10
HETATM   10  C8  UNL     1     -33.282   6.087   1.735  1.00 20.00     0.008 C 
HETATM   11  C6  UNL     1     -32.244   5.497   0.788  1.00 20.00     0.006 C 
ENDBRANCH   4  10
ENDBRANCH   2   4
TORSDOF 4
