REMARK  4 active torsions:
REMARK  status: ('A' for Active; 'I' for Inactive)
REMARK    1  A    between atoms: C2_2  and  C7_7 
REMARK    2  A    between atoms: C7_7  and  N11_11 
REMARK    3  A    between atoms: C8_8  and  C9_9 
REMARK    4  A    between atoms: C8_8  and  N11_11 
ROOT
HETATM    1  C1  UNL     1     -32.796   9.903   0.590  1.00 20.00    -0.109 C 
HETATM    2  C2  UNL     1     -32.340   8.837   0.901  1.00 20.00    -0.077 C 
HETATM    3  C4  UNL     1     -33.351  11.201   0.209  1.00 20.00     0.112 C 
ENDROOT
BRANCH   2   4
HETATM    4  C7  UNL     1     -31.777   7.537   1.280  1.00 20.00     0.365 C 
BRANCH   4   5
HETATM    5  N11 UNL     1     -32.799   6.682   1.895  1.00 20.00     0.096 N 
HETATM    6  C6  UNL     1     -32.377   5.277   1.829  1.00 20.00     0.311 C 
BRANCH   5   7
HETATM    7  C8  UNL     1     -33.061   7.082   3.259  1.00 20.00     0.291 C 
BRANCH   7   8
HETATM    8  C9  UNL     1     -34.422   6.576   3.755  1.00 20.00     0.117 C 
HETATM    9  C3  UNL     1     -34.363   5.153   4.138  1.00 20.00     0.065 C 
HETATM   10  N10 UNL     1     -34.317   4.034   4.442  1.00 20.00    -0.197 NA
HETATM   11  C5  UNL     1     -35.532   6.810   2.730  1.00 20.00     0.027 C 
ENDBRANCH   7   8
ENDBRANCH   5   7
ENDBRANCH   4   5
ENDBRANCH   2   4
TORSDOF 4
