REMARK  4 active torsions:
REMARK  status: ('A' for Active; 'I' for Inactive)
REMARK    1  A    between atoms: C2_2  and  C7_7 
REMARK    2  A    between atoms: C3_3  and  C8_8 
REMARK    3  A    between atoms: C3_3  and  C9_9 
REMARK    4  A    between atoms: C7_7  and  C8_8 
ROOT
HETATM    1  C1  UNL     1     -33.612   3.923   4.476  1.00 20.00    -0.111 C 
HETATM    2  C2  UNL     1     -34.215   4.933   4.233  1.00 20.00    -0.107 C 
HETATM    3  C4  UNL     1     -32.875   2.695   4.768  1.00 20.00     0.112 C 
ENDROOT
BRANCH   2   4
HETATM    4  C7  UNL     1     -34.951   6.170   3.932  1.00 20.00     0.101 C 
BRANCH   4   5
HETATM    5  C8  UNL     1     -34.012   7.301   3.522  1.00 20.00     0.090 C 
BRANCH   5   6
HETATM    6  C3  UNL     1     -33.198   6.999   2.268  1.00 20.00     0.131 C 
HETATM    7  O10 UNL     1     -33.311   5.939   1.653  1.00 20.00    -0.298 OA
BRANCH   6   8
HETATM    8  C9  UNL     1     -32.232   8.091   1.814  1.00 20.00     0.047 C 
HETATM    9  C5  UNL     1     -31.231   8.380   2.926  1.00 20.00     0.017 C 
HETATM   10  C6  UNL     1     -31.520   7.689   0.526  1.00 20.00     0.017 C 
ENDBRANCH   6   8
ENDBRANCH   5   6
ENDBRANCH   4   5
ENDBRANCH   2   4
TORSDOF 4
