REMARK  2 active torsions:
REMARK  status: ('A' for Active; 'I' for Inactive)
REMARK    1  A    between atoms: C2_2  and  C11_11 
REMARK    2  A    between atoms: C7_7  and  C11_11 
ROOT
HETATM    1  C1  UNL     1     -32.165  10.069  -0.207  1.00 20.00    -0.111 C 
HETATM    2  C2  UNL     1     -32.693   9.819   0.842  1.00 20.00    -0.106 C 
HETATM    3  C9  UNL     1     -31.520  10.373  -1.484  1.00 20.00     0.112 C 
ENDROOT
BRANCH   2   4
HETATM    4  C11 UNL     1     -33.346   9.521   2.120  1.00 20.00     0.106 C 
BRANCH   4   5
HETATM    5  C7  UNL     1     -32.579   8.450   2.889  1.00 20.00     0.067 C 
HETATM    6  C3  UNL     1     -31.977   7.448   1.919  1.00 20.00     0.132 C 
HETATM    7  C4  UNL     1     -32.902   6.399   1.342  1.00 20.00     0.079 C 
HETATM    8  O12 UNL     1     -30.808   7.544   1.543  1.00 20.00    -0.298 OA
HETATM    9  C5  UNL     1     -33.711   5.724   2.441  1.00 20.00     0.011 C 
HETATM   10  C8  UNL     1     -34.446   6.746   3.318  1.00 20.00    -0.017 C 
HETATM   11  C6  UNL     1     -33.441   7.732   3.933  1.00 20.00     0.017 C 
HETATM   12  C10 UNL     1     -35.240   6.037   4.415  1.00 20.00     0.010 C 
ENDBRANCH   4   5
ENDBRANCH   2   4
TORSDOF 2
