REMARK  2 active torsions:
REMARK  status: ('A' for Active; 'I' for Inactive)
REMARK    1  A    between atoms: C2_2  and  C11_11 
REMARK    2  A    between atoms: C7_7  and  C11_11 
ROOT
HETATM    1  C1  UNL     1     -32.595   9.311   0.383  1.00 20.00    -0.111 C 
HETATM    2  C2  UNL     1     -32.300   8.547   1.261  1.00 20.00    -0.106 C 
HETATM    3  C9  UNL     1     -32.954  10.241  -0.687  1.00 20.00     0.112 C 
ENDROOT
BRANCH   2   4
HETATM    4  C11 UNL     1     -31.931   7.618   2.333  1.00 20.00     0.106 C 
BRANCH   4   5
HETATM    5  C7  UNL     1     -33.093   6.692   2.680  1.00 20.00     0.067 C 
HETATM    6  C3  UNL     1     -34.140   7.396   3.535  1.00 20.00     0.132 C 
HETATM    7  C4  UNL     1     -35.274   6.530   4.039  1.00 20.00     0.079 C 
HETATM    8  O12 UNL     1     -34.131   8.609   3.738  1.00 20.00    -0.298 OA
HETATM    9  C5  UNL     1     -34.731   5.287   4.730  1.00 20.00     0.011 C 
HETATM   10  C8  UNL     1     -33.747   4.523   3.834  1.00 20.00    -0.017 C 
HETATM   11  C6  UNL     1     -32.590   5.442   3.410  1.00 20.00     0.017 C 
HETATM   12  C10 UNL     1     -33.214   3.286   4.555  1.00 20.00     0.010 C 
ENDBRANCH   4   5
ENDBRANCH   2   4
TORSDOF 2
