REMARK  3 active torsions:
REMARK  status: ('A' for Active; 'I' for Inactive)
REMARK    1  A    between atoms: C2_2  and  C10_10 
REMARK    2  A    between atoms: C7_7  and  N11_11 
REMARK    3  A    between atoms: C10_10  and  N11_11 
ROOT
HETATM    1  C1  UNL     1     -32.326   9.544  -0.014  1.00 20.00    -0.109 C 
HETATM    2  C2  UNL     1     -32.450   8.984   1.042  1.00 20.00    -0.077 C 
HETATM    3  C8  UNL     1     -32.175  10.224  -1.299  1.00 20.00     0.112 C 
ENDROOT
BRANCH   2   4
HETATM    4  C10 UNL     1     -32.594   8.302   2.331  1.00 20.00     0.363 C 
BRANCH   4   5
HETATM    5  N11 UNL     1     -33.994   8.157   2.688  1.00 20.00     0.103 N 
HETATM    6  H28 UNL     1     -34.342   9.030   3.074  1.00 20.00     0.318 HD
BRANCH   5   7
HETATM    7  C7  UNL     1     -34.161   7.116   3.677  1.00 20.00     0.155 C 
HETATM    8  C5  UNL     1     -33.652   5.769   3.151  1.00 20.00     0.041 C 
HETATM    9  C3  UNL     1     -34.400   4.716   3.964  1.00 20.00     0.003 C 
HETATM   10  C4  UNL     1     -35.681   5.389   4.457  1.00 20.00     0.003 C 
HETATM   11  C6  UNL     1     -35.645   6.817   3.918  1.00 20.00     0.041 C 
HETATM   12  C9  UNL     1     -33.447   7.528   4.969  1.00 20.00     0.049 C 
ENDBRANCH   5   7
ENDBRANCH   4   5
ENDBRANCH   2   4
TORSDOF 3
