REMARK  4 active torsions:
REMARK  status: ('A' for Active; 'I' for Inactive)
REMARK    1  A    between atoms: C2_2  and  C6_6 
REMARK    2  A    between atoms: C6_6  and  C7_7 
REMARK    3  A    between atoms: C7_7  and  C8_8 
REMARK    4  A    between atoms: C8_8  and  O9_9 
ROOT
HETATM    1  C1  UNL     1     -32.361   8.394   0.992  1.00 20.00    -0.111 C 
HETATM    2  C2  UNL     1     -32.495   7.526   1.811  1.00 20.00    -0.107 C 
HETATM    3  C3  UNL     1     -32.202   9.450  -0.005  1.00 20.00     0.112 C 
ENDROOT
BRANCH   2   4
HETATM    4  C6  UNL     1     -32.655   6.461   2.812  1.00 20.00     0.100 C 
BRANCH   4   5
HETATM    5  C7  UNL     1     -34.069   6.398   3.423  1.00 20.00     0.021 C 
HETATM    6  C4  UNL     1     -34.470   7.759   4.017  1.00 20.00     0.013 C 
BRANCH   5   7
HETATM    7  C8  UNL     1     -34.261   5.267   4.460  1.00 20.00     0.118 C 
HETATM    8  C5  UNL     1     -33.956   3.878   3.910  1.00 20.00     0.040 C 
BRANCH   7   9
HETATM    9  O9  UNL     1     -35.624   5.277   4.892  1.00 20.00    -0.396 OA
HETATM   10  H23 UNL     1     -35.697   4.595   5.576  1.00 20.00     0.210 HD
ENDBRANCH   7   9
ENDBRANCH   5   7
ENDBRANCH   4   5
ENDBRANCH   2   4
TORSDOF 4
