REMARK  2 active torsions:
REMARK  status: ('A' for Active; 'I' for Inactive)
REMARK    1  A    between atoms: C1_1  and  C5_5 
REMARK    2  A    between atoms: C6_6  and  C7_7 
ROOT
HETATM    1  C4  UNL     1     -32.472   6.456   1.712  1.00 20.00     0.021 A 
HETATM    2  C5  UNL     1     -33.681   7.215   2.192  1.00 20.00     0.091 A 
HETATM    3  C7  UNL     1     -32.351   7.923   2.030  1.00 20.00     0.005 A 
ENDROOT
BRANCH   2   4
HETATM    4  C1  UNL     1     -34.144   6.958   3.541  1.00 20.00     0.177 C 
HETATM    5  O8  UNL     1     -34.242   7.977   4.280  1.00 20.00    -0.648 OA
HETATM    6  O9  UNL     1     -34.388   5.746   3.796  1.00 20.00    -0.648 OA
ENDBRANCH   2   4
BRANCH   3   7
HETATM    7  C6  UNL     1     -32.115   8.977   0.959  1.00 20.00    -0.010 A 
HETATM    8  C2  UNL     1     -33.039   9.162  -0.213  1.00 20.00     0.005 A 
HETATM    9  C3  UNL     1     -32.951  10.222   0.849  1.00 20.00     0.005 A 
ENDBRANCH   3   7
TORSDOF 2
