REMARK  3 active torsions:
REMARK  status: ('A' for Active; 'I' for Inactive)
REMARK    1  A    between atoms: C2_2  and  C7_7 
REMARK    2  A    between atoms: C3_3  and  C8_8 
REMARK    3  A    between atoms: C7_7  and  C8_8 
ROOT
HETATM    1  C1  UNL     1     -32.378   9.447   0.976  1.00 20.00    -0.111 C 
HETATM    2  C2  UNL     1     -32.476   8.561   1.781  1.00 20.00    -0.106 C 
HETATM    3  C4  UNL     1     -32.263  10.524  -0.006  1.00 20.00     0.112 C 
ENDROOT
BRANCH   2   4
HETATM    4  C7  UNL     1     -32.598   7.478   2.769  1.00 20.00     0.105 C 
BRANCH   4   5
HETATM    5  C8  UNL     1     -33.534   6.348   2.318  1.00 20.00     0.062 C 
HETATM    6  C6  UNL     1     -32.867   5.423   1.298  1.00 20.00     0.018 C 
BRANCH   5   7
HETATM    7  C3  UNL     1     -34.091   5.560   3.505  1.00 20.00     0.127 C 
HETATM    8  C5  UNL     1     -35.361   6.076   4.135  1.00 20.00     0.091 C 
HETATM    9  O9  UNL     1     -33.552   4.538   3.930  1.00 20.00    -0.298 OA
ENDBRANCH   5   7
ENDBRANCH   4   5
ENDBRANCH   2   4
TORSDOF 3
