REMARK  3 active torsions:
REMARK  status: ('A' for Active; 'I' for Inactive)
REMARK    1  A    between atoms: C1_1  and  C3_3 
REMARK    2  A    between atoms: C2_2  and  C4_4 
REMARK    3  A    between atoms: C4_4  and  S7_7 
ROOT
HETATM    1  C1  UNL     1     -33.413   6.921   2.815  1.00 20.00     0.081 C 
HETATM    2  C2  UNL     1     -32.483   7.842   2.528  1.00 20.00    -0.010 C 
ENDROOT
BRANCH   1   3
HETATM    3  C3  UNL     1     -34.336   7.051   4.035  1.00 20.00     0.198 C 
HETATM    4  O5  UNL     1     -34.182   8.070   4.765  1.00 20.00    -0.645 OA
HETATM    5  O6  UNL     1     -35.158   6.097   4.162  1.00 20.00    -0.645 OA
ENDBRANCH   1   3
BRANCH   2   6
HETATM    6  C4  UNL     1     -31.558   7.740   1.354  1.00 20.00     0.098 C 
BRANCH   6   7
HETATM    7  S7  UNL     1     -31.779   9.167   0.258  1.00 20.00    -0.178 SA
HETATM    8  H12 UNL     1     -30.861   8.798  -0.646  1.00 20.00     0.101 HD
ENDBRANCH   6   7
ENDBRANCH   2   6
TORSDOF 3
