REMARK  3 active torsions:
REMARK  status: ('A' for Active; 'I' for Inactive)
REMARK    1  A    between atoms: C6_6  and  N10_10 
REMARK    2  A    between atoms: C7_7  and  C8_8 
REMARK    3  A    between atoms: C8_8  and  N10_10 
ROOT
HETATM    1  C1  UNL     1     -32.806  10.408  -0.220  1.00 20.00     0.013 C 
HETATM    2  C2  UNL     1     -32.602   9.547   0.591  1.00 20.00    -0.087 C 
HETATM    3  C6  UNL     1     -32.347   8.496   1.580  1.00 20.00     0.364 C 
ENDROOT
BRANCH   3   4
HETATM    4  N10 UNL     1     -33.592   8.070   2.211  1.00 20.00     0.117 N 
HETATM    5  H22 UNL     1     -33.845   8.745   2.934  1.00 20.00     0.319 HD
BRANCH   4   6
HETATM    6  C8  UNL     1     -33.454   6.753   2.803  1.00 20.00     0.241 C 
HETATM    7  C3  UNL     1     -33.088   5.782   1.751  1.00 20.00     0.101 C 
HETATM    8  N9  UNL     1     -32.799   5.020   0.925  1.00 20.00    -0.195 NA
HETATM    9  C5  UNL     1     -32.329   6.803   3.847  1.00 20.00     0.066 C 
BRANCH   6  10
HETATM   10  C7  UNL     1     -34.770   6.332   3.499  1.00 20.00     0.052 C 
HETATM   11  C4  UNL     1     -34.725   4.966   4.180  1.00 20.00     0.009 C 
ENDBRANCH   6  10
ENDBRANCH   4   6
ENDBRANCH   3   4
TORSDOF 3
