REMARK  2 active torsions:
REMARK  status: ('A' for Active; 'I' for Inactive)
REMARK    1  A    between atoms: C1_1  and  C3_3 
REMARK    2  A    between atoms: C2_2  and  C4_4 
ROOT
HETATM    1  C1  UNL     1     -32.482   6.314   1.422  1.00 20.00    -0.015 C 
HETATM    2  C2  UNL     1     -33.479   6.106   2.295  1.00 20.00    -0.015 C 
ENDROOT
BRANCH   1   3
HETATM    3  C3  UNL     1     -31.590   7.511   1.453  1.00 20.00     0.141 C 
HETATM    4 CL5  UNL     1     -32.284   8.808   0.457  1.00 20.00    -0.126 Cl
ENDBRANCH   1   3
BRANCH   2   5
HETATM    5  C4  UNL     1     -33.817   7.047   3.403  1.00 20.00     0.141 C 
HETATM    6 CL6  UNL     1     -35.549   6.936   3.784  1.00 20.00    -0.126 Cl
ENDBRANCH   2   5
TORSDOF 2
