REMARK  3 active torsions:
REMARK  status: ('A' for Active; 'I' for Inactive)
REMARK    1  A    between atoms: C2_2  and  C9_9 
REMARK    2  A    between atoms: C6_6  and  C9_9 
REMARK    3  A    between atoms: C7_7  and  O10_10 
ROOT
HETATM    1  C3  UNL     1     -33.666   3.841   3.747  1.00 20.00     0.003 C 
HETATM    2  C4  UNL     1     -33.196   5.083   2.986  1.00 20.00     0.008 C 
HETATM    3  C5  UNL     1     -34.378   4.345   5.005  1.00 20.00     0.032 C 
HETATM    4  C6  UNL     1     -33.404   6.251   3.954  1.00 20.00     0.022 C 
HETATM    5  C7  UNL     1     -34.638   5.825   4.750  1.00 20.00     0.122 C 
ENDROOT
BRANCH   4   6
HETATM    6  C9  UNL     1     -33.538   7.587   3.240  1.00 20.00     0.010 C 
HETATM    7  C8  UNL     1     -33.812   8.712   4.242  1.00 20.00     0.014 C 
BRANCH   6   8
HETATM    8  C2  UNL     1     -32.289   7.893   2.450  1.00 20.00    -0.032 C 
HETATM    9  C1  UNL     1     -32.264   8.065   1.124  1.00 20.00     0.007 C 
ENDBRANCH   6   8
ENDBRANCH   4   6
BRANCH   5  10
HETATM   10  O10 UNL     1     -35.822   5.978   3.976  1.00 20.00    -0.395 OA
HETATM   11  H26 UNL     1     -36.545   5.587   4.491  1.00 20.00     0.210 HD
ENDBRANCH   5  10
TORSDOF 3
