REMARK  1 active torsions:
REMARK  status: ('A' for Active; 'I' for Inactive)
REMARK    1  A    between atoms: C3_3  and  C8_8 
ROOT
HETATM    1  C1  UNL     1     -32.344   9.275   0.765  1.00 20.00     0.087 C 
HETATM    2  C2  UNL     1     -32.420   8.424   1.900  1.00 20.00     0.090 C 
HETATM    3  C3  UNL     1     -33.323   7.438   1.979  1.00 20.00    -0.011 C 
HETATM    4  N9  UNL     1     -32.278   9.972  -0.160  1.00 20.00    -0.192 NA
ENDROOT
BRANCH   3   5
HETATM    5  C8  UNL     1     -33.446   6.504   3.167  1.00 20.00     0.013 C 
HETATM    6  C4  UNL     1     -34.845   6.656   3.751  1.00 20.00     0.035 C 
HETATM    7  C6  UNL     1     -35.106   5.571   4.789  1.00 20.00     0.168 C 
HETATM    8  O10 UNL     1     -34.908   4.273   4.227  1.00 20.00    -0.391 OA
HETATM    9  C7  UNL     1     -33.566   4.081   3.777  1.00 20.00     0.168 C 
HETATM   10  C5  UNL     1     -33.216   5.079   2.680  1.00 20.00     0.035 C 
ENDBRANCH   3   5
TORSDOF 1
