REMARK  1 active torsions:
REMARK  status: ('A' for Active; 'I' for Inactive)
REMARK    1  A    between atoms: C1_1  and  C6_6 
ROOT
HETATM    1  C2  UNL     1     -33.267   5.594   2.754  1.00 20.00     0.021 C 
HETATM    2  C3  UNL     1     -32.603   7.669   4.164  1.00 20.00     0.027 A 
HETATM    3  C4  UNL     1     -33.670   4.442   3.655  1.00 20.00     0.075 C 
HETATM    4  C5  UNL     1     -35.022   6.723   4.119  1.00 20.00     0.084 C 
HETATM    5  C6  UNL     1     -33.267   8.225   2.931  1.00 20.00     0.097 A 
HETATM    6  C7  UNL     1     -33.671   6.860   3.466  1.00 20.00    -0.017 A 
HETATM    7  S10 UNL     1     -35.286   4.931   4.305  1.00 20.00    -0.168 SA
ENDROOT
BRANCH   5   8
HETATM    8  C1  UNL     1     -32.479   8.299   1.717  1.00 20.00     0.177 C 
HETATM    9  O8  UNL     1     -31.671   7.345   1.540  1.00 20.00    -0.648 OA
HETATM   10  O9  UNL     1     -32.709   9.311   0.997  1.00 20.00    -0.648 OA
ENDBRANCH   5   8
TORSDOF 1
