REMARK  3 active torsions:
REMARK  status: ('A' for Active; 'I' for Inactive)
REMARK    1  A    between atoms: C4_4  and  N10_10 
REMARK    2  A    between atoms: C7_7  and  C8_8 
REMARK    3  A    between atoms: C7_7  and  N10_10 
ROOT
HETATM    1  C1  UNL     1     -32.579   9.446   0.746  1.00 20.00     0.065 C 
HETATM    2  C6  UNL     1     -31.060   8.073   2.127  1.00 20.00     0.027 C 
HETATM    3  C8  UNL     1     -32.513   8.451   1.833  1.00 20.00     0.116 C 
HETATM    4  N9  UNL     1     -32.632  10.231  -0.107  1.00 20.00    -0.197 NA
ENDROOT
BRANCH   3   5
HETATM    5  C7  UNL     1     -33.379   7.222   1.524  1.00 20.00     0.288 C 
BRANCH   5   6
HETATM    6  N10 UNL     1     -33.300   6.223   2.577  1.00 20.00     0.089 N 
HETATM    7  H24 UNL     1     -33.565   5.315   2.206  1.00 20.00     0.316 HD
BRANCH   6   8
HETATM    8  C4  UNL     1     -34.205   6.563   3.679  1.00 20.00     0.224 A 
HETATM    9  C2  UNL     1     -35.676   6.251   3.584  1.00 20.00     0.042 A 
HETATM   10  C3  UNL     1     -34.817   5.514   4.574  1.00 20.00     0.016 A 
HETATM   11  C5  UNL     1     -34.550   4.058   4.397  1.00 20.00     0.012 C 
ENDBRANCH   6   8
ENDBRANCH   5   6
ENDBRANCH   3   5
TORSDOF 3
