REMARK  1 active torsions:
REMARK  status: ('A' for Active; 'I' for Inactive)
REMARK    1  A    between atoms: C8_8  and  N10_10 
ROOT
HETATM    1  C1  UNL     1     -33.405   4.920   3.280  1.00 20.00     0.130 C 
HETATM    2  C2  UNL     1     -34.159   6.219   3.429  1.00 20.00     0.108 C 
HETATM    3  C3  UNL     1     -32.716   4.703   1.954  1.00 20.00     0.108 C 
HETATM    4  C5  UNL     1     -33.313   7.388   2.932  1.00 20.00     0.280 C 
HETATM    5  C6  UNL     1     -31.950   5.956   1.540  1.00 20.00     0.280 C 
HETATM    6  N10 UNL     1     -32.813   7.147   1.570  1.00 20.00     0.094 N 
HETATM    7  O11 UNL     1     -33.444   4.044   4.142  1.00 20.00    -0.298 OA
ENDROOT
BRANCH   6   8
HETATM    8  C8  UNL     1     -32.081   8.317   1.084  1.00 20.00     0.227 A 
HETATM    9  C4  UNL     1     -31.860   8.516  -0.394  1.00 20.00     0.042 A 
HETATM   10  C7  UNL     1     -32.804   9.419   0.352  1.00 20.00     0.017 A 
HETATM   11  C9  UNL     1     -32.443  10.843   0.596  1.00 20.00     0.012 C 
ENDBRANCH   6   8
TORSDOF 1
