REMARK  2 active torsions:
REMARK  status: ('A' for Active; 'I' for Inactive)
REMARK    1  A    between atoms: C5_5  and  N8_8 
REMARK    2  A    between atoms: C7_7  and  N8_8 
ROOT
HETATM    1  C1  UNL     1     -33.025  10.185  -0.207  1.00 20.00     0.013 C 
HETATM    2  C2  UNL     1     -32.508   9.255   0.349  1.00 20.00    -0.087 C 
HETATM    3  C7  UNL     1     -31.875   8.119   1.023  1.00 20.00     0.362 C 
ENDROOT
BRANCH   3   4
HETATM    4  N8  UNL     1     -32.225   8.099   2.433  1.00 20.00     0.099 N 
HETATM    5  H19 UNL     1     -31.549   7.539   2.945  1.00 20.00     0.317 HD
BRANCH   4   6
HETATM    6  C5  UNL     1     -33.558   7.519   2.626  1.00 20.00     0.225 A 
HETATM    7  C3  UNL     1     -33.744   6.024   2.626  1.00 20.00     0.042 A 
HETATM    8  C4  UNL     1     -33.897   6.799   3.906  1.00 20.00     0.016 A 
HETATM    9  C6  UNL     1     -35.243   6.965   4.524  1.00 20.00     0.012 C 
ENDBRANCH   4   6
ENDBRANCH   3   4
TORSDOF 2
