REMARK  1 active torsions:
REMARK  status: ('A' for Active; 'I' for Inactive)
REMARK    1  A    between atoms: C4_4  and  N6_6 
ROOT
HETATM    1  C1  UNL     1     -34.308   6.861   3.889  1.00 20.00     0.158 C 
HETATM    2  N6  UNL     1     -33.199   7.257   3.862  1.00 20.00    -0.270 NA
HETATM    3  S7  UNL     1     -35.804   6.319   3.945  1.00 20.00    -0.055 SA
ENDROOT
BRANCH   2   4
HETATM    4  C4  UNL     1     -32.805   7.916   2.623  1.00 20.00     0.114 A 
HETATM    5  C2  UNL     1     -31.339   7.948   2.285  1.00 20.00     0.034 A 
HETATM    6  C3  UNL     1     -32.274   7.085   1.483  1.00 20.00     0.008 A 
HETATM    7  C5  UNL     1     -32.181   5.601   1.567  1.00 20.00     0.012 C 
ENDBRANCH   2   4
TORSDOF 1
