REMARK  3 active torsions:
REMARK  status: ('A' for Active; 'I' for Inactive)
REMARK    1  A    between atoms: C2_2  and  C8_8 
REMARK    2  A    between atoms: C5_5  and  N9_9 
REMARK    3  A    between atoms: C8_8  and  N9_9 
ROOT
HETATM    1  C1  UNL     1     -32.284   8.835   0.463  1.00 20.00    -0.109 C 
HETATM    2  C2  UNL     1     -32.218   7.688   0.811  1.00 20.00    -0.077 C 
HETATM    3  C6  UNL     1     -32.364  10.232   0.037  1.00 20.00     0.112 C 
ENDROOT
BRANCH   2   4
HETATM    4  C8  UNL     1     -32.132   6.287   1.235  1.00 20.00     0.363 C 
BRANCH   4   5
HETATM    5  N9  UNL     1     -33.336   5.882   1.941  1.00 20.00     0.099 N 
HETATM    6  H22 UNL     1     -33.411   4.869   1.934  1.00 20.00     0.317 HD
BRANCH   5   7
HETATM    7  C5  UNL     1     -33.297   6.343   3.332  1.00 20.00     0.225 A 
HETATM    8  C3  UNL     1     -33.635   7.771   3.674  1.00 20.00     0.042 A 
HETATM    9  C4  UNL     1     -34.549   6.660   4.113  1.00 20.00     0.016 A 
HETATM   10  C7  UNL     1     -35.912   6.534   3.522  1.00 20.00     0.012 C 
ENDBRANCH   5   7
ENDBRANCH   4   5
ENDBRANCH   2   4
TORSDOF 3
