REMARK  2 active torsions:
REMARK  status: ('A' for Active; 'I' for Inactive)
REMARK    1  A    between atoms: C4_4  and  N9_9 
REMARK    2  A    between atoms: C7_7  and  N9_9 
ROOT
HETATM    1  C1  UNL     1     -32.545   9.072   1.213  1.00 20.00     0.094 C 
HETATM    2  C6  UNL     1     -32.708   6.617   1.053  1.00 20.00     0.059 C 
HETATM    3  C7  UNL     1     -32.087   7.799   1.785  1.00 20.00     0.322 C 
HETATM    4  N8  UNL     1     -32.905  10.078   0.759  1.00 20.00    -0.195 NA
ENDROOT
BRANCH   3   5
HETATM    5  N9  UNL     1     -32.405   7.751   3.202  1.00 20.00     0.106 N 
HETATM    6  H21 UNL     1     -31.943   8.519   3.682  1.00 20.00     0.318 HD
BRANCH   5   7
HETATM    7  C4  UNL     1     -33.851   7.868   3.411  1.00 20.00     0.226 A 
HETATM    8  C2  UNL     1     -34.415   7.833   4.808  1.00 20.00     0.042 A 
HETATM    9  C3  UNL     1     -34.682   6.692   3.864  1.00 20.00     0.016 A 
HETATM   10  C5  UNL     1     -34.084   5.352   4.124  1.00 20.00     0.012 C 
ENDBRANCH   5   7
ENDBRANCH   3   5
TORSDOF 2
