REMARK  2 active torsions:
REMARK  status: ('A' for Active; 'I' for Inactive)
REMARK    1  A    between atoms: C4_4  and  N9_9 
REMARK    2  A    between atoms: C7_7  and  N9_9 
ROOT
HETATM    1  C1  UNL     1     -32.371   9.227   0.489  1.00 20.00     0.094 C 
HETATM    2  C6  UNL     1     -30.892   7.666   1.695  1.00 20.00     0.059 C 
HETATM    3  C7  UNL     1     -32.244   8.366   1.672  1.00 20.00     0.322 C 
HETATM    4  N8  UNL     1     -32.471   9.910  -0.444  1.00 20.00    -0.195 NA
ENDROOT
BRANCH   3   5
HETATM    5  N9  UNL     1     -33.326   7.397   1.697  1.00 20.00     0.106 N 
HETATM    6  H21 UNL     1     -33.112   6.629   1.066  1.00 20.00     0.318 HD
BRANCH   5   7
HETATM    7  C4  UNL     1     -33.504   6.857   3.049  1.00 20.00     0.226 A 
HETATM    8  C2  UNL     1     -34.252   7.648   4.091  1.00 20.00     0.042 A 
HETATM    9  C3  UNL     1     -34.863   6.401   3.514  1.00 20.00     0.016 A 
HETATM   10  C5  UNL     1     -34.996   5.176   4.351  1.00 20.00     0.012 C 
ENDBRANCH   5   7
ENDBRANCH   3   5
TORSDOF 2
