REMARK  1 active torsions:
REMARK  status: ('A' for Active; 'I' for Inactive)
REMARK    1  A    between atoms: C5_5  and  C6_6 
ROOT
HETATM    1  C1  UNL     1     -34.851   5.044   4.132  1.00 20.00     0.014 A 
HETATM    2  C2  UNL     1     -34.566   7.562   4.821  1.00 20.00     0.275 C 
HETATM    3  C3  UNL     1     -35.418   6.418   4.372  1.00 20.00     0.021 A 
HETATM    4  C4  UNL     1     -34.982   6.041   3.007  1.00 20.00     0.034 A 
HETATM    5  C5  UNL     1     -33.879   6.982   2.617  1.00 20.00     0.331 C 
HETATM    6  N7  UNL     1     -33.426   7.566   3.892  1.00 20.00     0.097 N 
HETATM    7  H18 UNL     1     -33.067   8.509   3.756  1.00 20.00     0.316 HD
ENDROOT
BRANCH   5   8
HETATM    8  C6  UNL     1     -32.736   6.286   1.899  1.00 20.00     0.418 C 
HETATM    9  F8  UNL     1     -31.759   7.163   1.611  1.00 20.00    -0.169 F 
HETATM   10  F9  UNL     1     -32.222   5.312   2.670  1.00 20.00    -0.169 F 
HETATM   11  F10 UNL     1     -33.170   5.736   0.750  1.00 20.00    -0.169 F 
ENDBRANCH   5   8
TORSDOF 1
