REMARK  4 active torsions:
REMARK  status: ('A' for Active; 'I' for Inactive)
REMARK    1  A    between atoms: C1_1  and  C3_3 
REMARK    2  A    between atoms: C2_2  and  C6_6 
REMARK    3  A    between atoms: C6_6  and  C7_7 
REMARK    4  A    between atoms: C7_7  and  O8_8 
ROOT
HETATM    1  C1  UNL     1     -32.922   7.590   1.421  1.00 20.00    -0.079 C 
HETATM    2  C2  UNL     1     -33.344   6.828   2.249  1.00 20.00    -0.100 C 
ENDROOT
BRANCH   2   3
HETATM    3  C6  UNL     1     -33.858   5.897   3.263  1.00 20.00     0.120 C 
BRANCH   3   4
HETATM    4  C7  UNL     1     -35.361   6.050   3.450  1.00 20.00     0.176 C 
BRANCH   4   5
HETATM    5  O8  UNL     1     -35.822   5.108   4.411  1.00 20.00    -0.400 OA
HETATM    6  H18 UNL     1     -36.780   5.242   4.496  1.00 20.00     0.209 HD
ENDBRANCH   4   5
ENDBRANCH   3   4
ENDBRANCH   2   3
BRANCH   1   7
HETATM    7  C3  UNL     1     -32.422   8.486   0.439  1.00 20.00     0.060 C 
HETATM    8  C4  UNL     1     -32.453   9.814   0.618  1.00 20.00    -0.022 C 
HETATM    9  C5  UNL     1     -31.940  10.795  -0.384  1.00 20.00     0.036 C 
ENDBRANCH   1   7
TORSDOF 4
