REMARK  3 active torsions:
REMARK  status: ('A' for Active; 'I' for Inactive)
REMARK    1  A    between atoms: C4_4  and  C6_6 
REMARK    2  A    between atoms: C6_6  and  C7_7 
REMARK    3  A    between atoms: C7_7  and  C8_8 
ROOT
HETATM    1  C1  UNL     1     -34.174   5.563   3.475  1.00 20.00     0.029 C 
HETATM    2  C2  UNL     1     -33.112   5.534   2.405  1.00 20.00     0.034 C 
HETATM    3  C3  UNL     1     -33.791   6.799   4.261  1.00 20.00     0.168 C 
HETATM    4  C4  UNL     1     -32.950   7.012   2.098  1.00 20.00     0.121 C 
HETATM    5  O9  UNL     1     -33.166   7.705   3.340  1.00 20.00    -0.386 OA
ENDROOT
BRANCH   4   6
HETATM    6  C6  UNL     1     -31.586   7.369   1.540  1.00 20.00     0.033 C 
BRANCH   6   7
HETATM    7  C7  UNL     1     -31.466   8.874   1.280  1.00 20.00     0.022 C 
BRANCH   7   8
HETATM    8  C8  UNL     1     -32.486   9.398   0.260  1.00 20.00     0.078 C 
HETATM    9  C5  UNL     1     -32.312  10.894   0.028  1.00 20.00     0.026 C 
HETATM   10 CL10 UNL     1     -32.326   8.547  -1.306  1.00 20.00    -0.125 Cl
ENDBRANCH   7   8
ENDBRANCH   6   7
ENDBRANCH   4   6
TORSDOF 3
