REMARK  3 active torsions:
REMARK  status: ('A' for Active; 'I' for Inactive)
REMARK    1  A    between atoms: C4_4  and  C6_6 
REMARK    2  A    between atoms: C6_6  and  C7_7 
REMARK    3  A    between atoms: C7_7  and  C8_8 
ROOT
HETATM    1  C1  UNL     1     -34.197   4.915   2.685  1.00 20.00     0.029 C 
HETATM    2  C2  UNL     1     -32.959   5.217   1.878  1.00 20.00     0.034 C 
HETATM    3  C3  UNL     1     -34.202   6.049   3.687  1.00 20.00     0.168 C 
HETATM    4  C4  UNL     1     -33.008   6.734   1.806  1.00 20.00     0.121 C 
HETATM    5  O9  UNL     1     -33.582   7.175   3.048  1.00 20.00    -0.386 OA
ENDROOT
BRANCH   4   6
HETATM    6  C6  UNL     1     -31.647   7.374   1.612  1.00 20.00     0.033 C 
BRANCH   6   7
HETATM    7  C7  UNL     1     -31.750   8.902   1.578  1.00 20.00     0.022 C 
BRANCH   7   8
HETATM    8  C8  UNL     1     -32.629   9.428   0.435  1.00 20.00     0.078 C 
HETATM    9  C5  UNL     1     -32.090   8.986  -0.920  1.00 20.00     0.026 C 
HETATM   10 CL10 UNL     1     -32.721  11.215   0.465  1.00 20.00    -0.125 Cl
ENDBRANCH   7   8
ENDBRANCH   6   7
ENDBRANCH   4   6
TORSDOF 3
