REMARK  5 active torsions:
REMARK  status: ('A' for Active; 'I' for Inactive)
REMARK    1  A    between atoms: C1_1  and  C7_7 
REMARK    2  A    between atoms: C1_1  and  C11_11 
REMARK    3  A    between atoms: C7_7  and  C10_10 
REMARK    4  A    between atoms: C8_8  and  C9_9 
REMARK    5  A    between atoms: C9_9  and  C10_10 
ROOT
HETATM    1  C1  UNL     1     -33.392   6.209   2.319  1.00 20.00     0.134 C 
HETATM    2  O12 UNL     1     -32.693   5.326   1.817  1.00 20.00    -0.297 OA
ENDROOT
BRANCH   1   3
HETATM    3  C7  UNL     1     -33.433   7.612   1.716  1.00 20.00     0.083 C 
BRANCH   3   4
HETATM    4  C10 UNL     1     -32.053   8.294   1.649  1.00 20.00    -0.012 C 
HETATM    5  C3  UNL     1     -31.441   8.403   3.051  1.00 20.00     0.010 C 
BRANCH   4   6
HETATM    6  C9  UNL     1     -32.204   9.678   0.982  1.00 20.00     0.004 C 
BRANCH   6   7
HETATM    7  C8  UNL     1     -32.270   9.619  -0.546  1.00 20.00    -0.004 C 
HETATM    8  C2  UNL     1     -31.044   8.931  -1.128  1.00 20.00     0.005 C 
ENDBRANCH   6   7
ENDBRANCH   4   6
ENDBRANCH   3   4
ENDBRANCH   1   3
BRANCH   1   9
HETATM    9  C11 UNL     1     -34.242   5.938   3.579  1.00 20.00     0.009 C 
HETATM   10  C4  UNL     1     -35.729   6.186   3.293  1.00 20.00     0.022 C 
HETATM   11  C5  UNL     1     -34.018   4.489   4.029  1.00 20.00     0.022 C 
HETATM   12  C6  UNL     1     -33.799   6.884   4.710  1.00 20.00     0.022 C 
ENDBRANCH   1   9
TORSDOF 5
