REMARK  2 active torsions:
REMARK  status: ('A' for Active; 'I' for Inactive)
REMARK    1  A    between atoms: C1_1  and  C2_2 
REMARK    2  A    between atoms: C9_9  and  N10_10 
ROOT
HETATM    1  C1  UNL     1     -33.208   5.872   1.824  1.00 20.00     0.150 C 
HETATM    2  C3  UNL     1     -33.058   5.129   3.119  1.00 20.00     0.068 C 
HETATM    3  C4  UNL     1     -34.238   5.436   4.042  1.00 20.00     0.008 C 
HETATM    4  C5  UNL     1     -34.784   6.857   3.866  1.00 20.00     0.029 C 
HETATM    5  C6  UNL     1     -33.758   7.793   3.241  1.00 20.00     0.242 C 
HETATM    6  N10 UNL     1     -33.367   7.309   1.855  1.00 20.00    -0.038 N 
HETATM    7  H28 UNL     1     -34.116   7.606   1.235  1.00 20.00     0.286 HD
ENDROOT
BRANCH   6   8
HETATM    8  C9  UNL     1     -32.121   7.997   1.364  1.00 20.00     0.186 C 
HETATM    9  C7  UNL     1     -31.096   7.997   2.486  1.00 20.00     0.040 C 
HETATM   10  C8  UNL     1     -32.490   9.403   0.920  1.00 20.00     0.040 C 
ENDBRANCH   6   8
BRANCH   1  11
HETATM   11  C2  UNL     1     -33.297   5.252   0.637  1.00 20.00     0.291 C 
HETATM   12  O11 UNL     1     -33.281   4.033   0.318  1.00 20.00    -0.300 OA
ENDBRANCH   1  11
TORSDOF 2
