REMARK  3 active torsions:
REMARK  status: ('A' for Active; 'I' for Inactive)
REMARK    1  A    between atoms: C1_1  and  C9_9 
REMARK    2  A    between atoms: C3_3  and  C8_8 
REMARK    3  A    between atoms: C9_9  and  N10_10 
ROOT
HETATM    1  C4  UNL     1     -34.831   7.016   4.586  1.00 20.00     0.028 C 
HETATM    2  C5  UNL     1     -35.412   5.823   3.833  1.00 20.00     0.015 C 
HETATM    3  C6  UNL     1     -33.844   7.794   3.730  1.00 20.00     0.235 C 
HETATM    4  C7  UNL     1     -33.283   5.712   2.443  1.00 20.00     0.246 C 
HETATM    5  C8  UNL     1     -34.335   4.934   3.219  1.00 20.00     0.073 C 
HETATM    6  N10 UNL     1     -32.751   6.865   3.265  1.00 20.00    -0.067 N 
HETATM    7  H27 UNL     1     -32.309   6.469   4.106  1.00 20.00     0.280 HD
ENDROOT
BRANCH   6   8
HETATM    8  C9  UNL     1     -31.665   7.608   2.535  1.00 20.00     0.263 C 
BRANCH   8   9
HETATM    9  C1  UNL     1     -32.148   8.250   1.276  1.00 20.00     0.012 C 
HETATM   10  C2  UNL     1     -32.614   9.500   1.221  1.00 20.00     0.082 C 
HETATM   11 CL12 UNL     1     -33.161  10.231  -0.229  1.00 20.00    -0.097 Cl
ENDBRANCH   8   9
ENDBRANCH   6   8
BRANCH   5  12
HETATM   12  C3  UNL     1     -33.709   4.106   4.331  1.00 20.00     0.237 C 
HETATM   13  O11 UNL     1     -33.781   2.882   4.385  1.00 20.00    -0.306 OA
ENDBRANCH   5  12
TORSDOF 3
