REMARK  2 active torsions:
REMARK  status: ('A' for Active; 'I' for Inactive)
REMARK    1  A    between atoms: C2_2  and  C7_7 
REMARK       I    between atoms: C2_2  and  N8_8 
REMARK    2  A    between atoms: C6_6  and  C7_7 
ROOT
HETATM    1  C1  UNL     1     -34.582   6.952   3.570  1.00 20.00     0.166 C 
HETATM    2  C2  UNL     1     -32.790   7.309   2.350  1.00 20.00     0.252 C 
HETATM    3  N8  UNL     1     -33.494   7.392   3.540  1.00 20.00    -0.199 NA
HETATM    4  O9  UNL     1     -32.491   6.266   1.767  1.00 20.00    -0.270 OA
HETATM    5  S10 UNL     1     -36.061   6.366   3.651  1.00 20.00    -0.055 SA
ENDROOT
BRANCH   2   6
HETATM    6  C7  UNL     1     -32.378   8.688   1.786  1.00 20.00     0.035 C 
HETATM    7  C4  UNL     1     -30.845   8.777   1.681  1.00 20.00     0.025 C 
HETATM    8  C5  UNL     1     -32.852   9.773   2.772  1.00 20.00     0.025 C 
BRANCH   6   9
HETATM    9  C6  UNL     1     -33.038   8.938   0.406  1.00 20.00     0.014 C 
HETATM   10  C3  UNL     1     -32.693  10.277  -0.238  1.00 20.00     0.006 C 
ENDBRANCH   6   9
ENDBRANCH   2   6
TORSDOF 2
