REMARK  2 active torsions:
REMARK  status: ('A' for Active; 'I' for Inactive)
REMARK    1  A    between atoms: C7_7  and  C11_11 
REMARK    2  A    between atoms: C8_8  and  C12_12 
ROOT
HETATM    1  C1  UNL     1     -33.150   2.645   4.886  1.00 20.00     0.012 C 
HETATM    2  C2  UNL     1     -33.349   3.368   3.949  1.00 20.00    -0.117 C 
HETATM    3  C11 UNL     1     -33.596   4.242   2.798  1.00 20.00     0.105 C 
ENDROOT
BRANCH   3   4
HETATM    4  C7  UNL     1     -33.161   5.674   3.094  1.00 20.00     0.067 C 
HETATM    5  C3  UNL     1     -34.173   6.402   3.971  1.00 20.00     0.132 C 
HETATM    6  C4  UNL     1     -33.899   7.868   4.221  1.00 20.00     0.079 C 
HETATM    7  O13 UNL     1     -35.110   5.829   4.526  1.00 20.00    -0.298 OA
HETATM    8  C5  UNL     1     -33.669   8.601   2.907  1.00 20.00     0.012 C 
HETATM    9  C8  UNL     1     -32.582   7.924   2.061  1.00 20.00    -0.010 C 
HETATM   10  C6  UNL     1     -32.953   6.457   1.793  1.00 20.00     0.018 C 
BRANCH   9  11
HETATM   11  C12 UNL     1     -32.379   8.675   0.746  1.00 20.00    -0.019 C 
HETATM   12  C9  UNL     1     -31.986  10.126   1.013  1.00 20.00     0.010 C 
HETATM   13  C10 UNL     1     -31.323   7.981  -0.111  1.00 20.00     0.010 C 
ENDBRANCH   9  11
ENDBRANCH   3   4
TORSDOF 2
