REMARK  1 active torsions:
REMARK  status: ('A' for Active; 'I' for Inactive)
REMARK    1  A    between atoms: C1_1  and  C6_6 
ROOT
HETATM    1  C2  UNL     1     -32.236   8.283   2.418  1.00 20.00     0.027 C 
HETATM    2  C3  UNL     1     -33.468   7.786   3.167  1.00 20.00     0.017 C 
HETATM    3  C4  UNL     1     -32.015   7.473   1.147  1.00 20.00     0.167 C 
HETATM    4  C5  UNL     1     -33.115   5.572   2.034  1.00 20.00     0.181 C 
HETATM    5  C6  UNL     1     -33.405   6.272   3.359  1.00 20.00     0.096 C 
HETATM    6  O8  UNL     1     -31.918   6.081   1.445  1.00 20.00    -0.390 OA
ENDROOT
BRANCH   5   7
HETATM    7  C1  UNL     1     -34.694   5.780   3.935  1.00 20.00     0.225 C 
HETATM    8  O7  UNL     1     -35.764   6.329   3.687  1.00 20.00    -0.279 OA
HETATM    9 CL9  UNL     1     -34.468   4.390   4.954  1.00 20.00    -0.043 Cl
ENDBRANCH   5   7
TORSDOF 1
