REMARK  0 active torsions:
REMARK  status: ('A' for Active; 'I' for Inactive)
ROOT
HETATM    1  C1  UNL     1     -32.440   9.550   0.780  1.00 20.00    -0.006 C 
HETATM    2  C2  UNL     1     -33.046  10.223   1.763  1.00 20.00     0.112 C 
HETATM    3  C3  UNL     1     -33.564   8.383   3.010  1.00 20.00     0.023 C 
HETATM    4  C4  UNL     1     -33.119   6.039   2.098  1.00 20.00     0.136 C 
HETATM    5  C5  UNL     1     -32.414   8.060   0.782  1.00 20.00     0.046 C 
HETATM    6  C6  UNL     1     -34.256   7.765   4.206  1.00 20.00     0.056 C 
HETATM    7  C7  UNL     1     -33.831   5.470   3.305  1.00 20.00     0.079 C 
HETATM    8  C8  UNL     1     -34.886   6.440   3.809  1.00 20.00     0.013 C 
HETATM    9  C9  UNL     1     -32.644   7.487   2.185  1.00 20.00     0.106 C 
HETATM   10  N10 UNL     1     -33.710   9.659   2.818  1.00 20.00    -0.269 NA
HETATM   11  O11 UNL     1     -32.836   5.315   1.142  1.00 20.00    -0.297 OA
ENDROOT
TORSDOF 0
