REMARK  3 active torsions:
REMARK  status: ('A' for Active; 'I' for Inactive)
REMARK    1  A    between atoms: C2_2  and  C7_7 
REMARK    2  A    between atoms: C5_5  and  C7_7 
REMARK    3  A    between atoms: C6_6  and  C7_7 
ROOT
HETATM    1  C7  UNL     1     -32.961   6.678   1.946  1.00 20.00     0.016 C 
ENDROOT
BRANCH   1   2
HETATM    2  C2  UNL     1     -33.226   6.920   3.435  1.00 20.00     0.149 A 
HETATM    3  C1  UNL     1     -34.372   7.777   3.893  1.00 20.00     0.200 A 
HETATM    4  O8  UNL     1     -34.441   6.343   3.925  1.00 20.00    -0.381 OA
ENDBRANCH   1   2
BRANCH   1   5
HETATM    5  C5  UNL     1     -32.621   5.200   1.662  1.00 20.00     0.002 C 
HETATM    6  C3  UNL     1     -32.376   4.896   0.191  1.00 20.00     0.005 C 
ENDBRANCH   1   5
BRANCH   1   7
HETATM    7  C6  UNL     1     -31.814   7.568   1.422  1.00 20.00     0.002 C 
HETATM    8  C4  UNL     1     -32.064   9.060   1.592  1.00 20.00     0.005 C 
ENDBRANCH   1   7
TORSDOF 3
