REMARK  1 active torsions:
REMARK  status: ('A' for Active; 'I' for Inactive)
REMARK    1  A    between atoms: C4_4  and  C5_5 
ROOT
HETATM    1  C1  UNL     1     -32.374   7.929   2.532  1.00 20.00     0.007 A 
HETATM    2  C2  UNL     1     -32.508   7.027   1.337  1.00 20.00     0.007 A 
HETATM    3  C4  UNL     1     -32.081   8.456   1.154  1.00 20.00     0.017 A 
ENDROOT
BRANCH   3   4
HETATM    4  C5  UNL     1     -32.957   9.493   0.470  1.00 20.00     0.149 A 
HETATM    5  C3  UNL     1     -32.416  10.598  -0.388  1.00 20.00     0.200 A 
HETATM    6  O6  UNL     1     -32.992   9.411  -0.956  1.00 20.00    -0.381 OA
ENDBRANCH   3   4
TORSDOF 1
