REMARK  3 active torsions:
REMARK  status: ('A' for Active; 'I' for Inactive)
REMARK    1  A    between atoms: C2_2  and  C6_6 
REMARK    2  A    between atoms: C6_6  and  C7_7 
REMARK    3  A    between atoms: C7_7  and  C8_8 
ROOT
HETATM    1  C6  UNL     1     -33.753   8.184   2.084  1.00 20.00     0.040 C 
ENDROOT
BRANCH   1   2
HETATM    2  C2  UNL     1     -33.737   7.295   3.319  1.00 20.00     0.079 A 
HETATM    3  C1  UNL     1     -34.600   7.654   4.505  1.00 20.00     0.206 A 
HETATM    4  O9  UNL     1     -33.191   7.931   4.482  1.00 20.00    -0.375 OA
HETATM    5  C3  UNL     1     -33.286   5.882   3.137  1.00 20.00     0.048 C 
ENDBRANCH   1   2
BRANCH   1   6
HETATM    6  C7  UNL     1     -32.337   8.431   1.557  1.00 20.00     0.007 C 
BRANCH   6   7
HETATM    7  C8  UNL     1     -32.301   9.268   0.265  1.00 20.00    -0.023 C 
HETATM    8  C4  UNL     1     -32.938  10.637   0.515  1.00 20.00     0.009 C 
HETATM    9  C5  UNL     1     -33.010   8.575  -0.900  1.00 20.00     0.009 C 
ENDBRANCH   6   7
ENDBRANCH   1   6
TORSDOF 3
