REMARK  1 active torsions:
REMARK  status: ('A' for Active; 'I' for Inactive)
REMARK    1  A    between atoms: C1_1  and  C2_2 
ROOT
HETATM    1  C1  UNL     1     -32.857   6.859   2.224  1.00 20.00     0.437 C 
HETATM    2  F3  UNL     1     -33.047   6.024   1.178  1.00 20.00    -0.166 F 
HETATM    3  F4  UNL     1     -31.667   6.541   2.782  1.00 20.00    -0.166 F 
HETATM    4  F5  UNL     1     -32.745   8.111   1.725  1.00 20.00    -0.166 F 
ENDROOT
BRANCH   1   5
HETATM    5  C2  UNL     1     -33.990   6.759   3.231  1.00 20.00     0.286 C 
HETATM    6 CL6  UNL     1     -34.099   5.091   3.862  1.00 20.00    -0.074 Cl
HETATM    7 CL7  UNL     1     -33.696   7.877   4.594  1.00 20.00    -0.074 Cl
HETATM    8 CL8  UNL     1     -35.539   7.187   2.451  1.00 20.00    -0.074 Cl
ENDBRANCH   1   5
TORSDOF 1
