REMARK  3 active torsions:
REMARK  status: ('A' for Active; 'I' for Inactive)
REMARK    1  A    between atoms: C1_1  and  C4_4 
REMARK    2  A    between atoms: C1_1  and  O6_6 
REMARK    3  A    between atoms: C5_5  and  O6_6 
ROOT
HETATM    1  C1  UNL     1     -34.053   5.994   3.516  1.00 20.00     0.112 C 
HETATM    2  S7  UNL     1     -35.377   6.205   4.512  1.00 20.00    -0.058 SA
ENDROOT
BRANCH   1   3
HETATM    3  C4  UNL     1     -33.385   4.661   3.308  1.00 20.00     0.072 C 
HETATM    4  C2  UNL     1     -33.986   3.588   4.201  1.00 20.00     0.013 C 
ENDBRANCH   1   3
BRANCH   1   5
HETATM    5  O6  UNL     1     -33.625   7.091   2.868  1.00 20.00    -0.344 OA
BRANCH   5   6
HETATM    6  C5  UNL     1     -32.519   7.050   1.952  1.00 20.00     0.172 C 
HETATM    7  C3  UNL     1     -32.289   8.438   1.393  1.00 20.00     0.034 C 
ENDBRANCH   5   6
ENDBRANCH   1   5
TORSDOF 3
