REMARK  3 active torsions:
REMARK  status: ('A' for Active; 'I' for Inactive)
REMARK    1  A    between atoms: C3_3  and  C4_4 
REMARK    2  A    between atoms: C3_3  and  C5_5 
REMARK    3  A    between atoms: C4_4  and  O6_6 
ROOT
HETATM    1  C1  UNL     1     -34.382   8.198   3.753  1.00 20.00     0.022 A 
HETATM    2  C2  UNL     1     -33.500   7.293   4.565  1.00 20.00     0.022 A 
HETATM    3  C3  UNL     1     -33.988   6.846   3.207  1.00 20.00     0.079 A 
ENDROOT
BRANCH   3   4
HETATM    4  C4  UNL     1     -35.040   5.773   3.153  1.00 20.00     0.182 C 
BRANCH   4   5
HETATM    5  O6  UNL     1     -35.828   5.825   4.337  1.00 20.00    -0.400 OA
HETATM    6  H16 UNL     1     -36.491   5.120   4.261  1.00 20.00     0.209 HD
ENDBRANCH   4   5
ENDBRANCH   3   4
BRANCH   3   7
HETATM    7  C5  UNL     1     -32.993   6.804   2.079  1.00 20.00     0.397 C 
HETATM    8  F7  UNL     1     -31.822   7.365   2.447  1.00 20.00    -0.170 F 
HETATM    9  F8  UNL     1     -32.744   5.532   1.702  1.00 20.00    -0.170 F 
HETATM   10  F9  UNL     1     -33.455   7.474   1.002  1.00 20.00    -0.170 F 
ENDBRANCH   3   7
TORSDOF 3
