REMARK  0 active torsions:
REMARK  status: ('A' for Active; 'I' for Inactive)
ROOT
HETATM    1  C1  UNL     1     -33.707   8.252   4.088  1.00 20.00     0.013 C 
HETATM    2  C2  UNL     1     -32.822   7.135   4.678  1.00 20.00     0.013 C 
HETATM    3  C3  UNL     1     -35.576   6.852   3.061  1.00 20.00     0.280 C 
HETATM    4  C4  UNL     1     -34.175   5.082   3.995  1.00 20.00     0.280 C 
HETATM    5  C5  UNL     1     -34.289   7.656   2.792  1.00 20.00     0.086 C 
HETATM    6  C6  UNL     1     -32.948   5.963   3.685  1.00 20.00     0.086 C 
HETATM    7  C7  UNL     1     -33.184   6.701   2.379  1.00 20.00     0.254 C 
HETATM    8  N8  UNL     1     -35.430   5.838   4.116  1.00 20.00     0.084 N 
HETATM    9  F9  UNL     1     -33.533   5.890   1.367  1.00 20.00    -0.205 F 
HETATM   10  F10 UNL     1     -32.076   7.377   2.000  1.00 20.00    -0.205 F 
HETATM   11  H21 UNL     1     -35.435   6.311   5.019  1.00 20.00     0.315 HD
ENDROOT
TORSDOF 0
