REMARK  1 active torsions:
REMARK  status: ('A' for Active; 'I' for Inactive)
REMARK    1  A    between atoms: C7_7  and  C8_8 
ROOT
HETATM    1  C1  UNL     1     -32.950   5.681   1.359  1.00 20.00     0.132 C 
HETATM    2  C2  UNL     1     -33.682   5.253   2.608  1.00 20.00     0.079 C 
HETATM    3  C3  UNL     1     -34.467   6.415   3.205  1.00 20.00     0.008 C 
HETATM    4  C4  UNL     1     -33.547   7.568   3.602  1.00 20.00     0.006 C 
HETATM    5  C5  UNL     1     -32.265   6.997   1.415  1.00 20.00     0.073 A 
HETATM    6  C6  UNL     1     -32.598   7.973   2.516  1.00 20.00     0.011 A 
HETATM    7  C7  UNL     1     -33.061   8.246   1.106  1.00 20.00     0.110 A 
HETATM    8  O9  UNL     1     -32.853   4.975   0.363  1.00 20.00    -0.298 OA
ENDROOT
BRANCH   7   9
HETATM    9  C8  UNL     1     -32.440   9.347   0.318  1.00 20.00     0.392 C 
HETATM   10  F10 UNL     1     -33.030  10.538   0.579  1.00 20.00    -0.171 F 
HETATM   11  F11 UNL     1     -31.122   9.478   0.600  1.00 20.00    -0.171 F 
HETATM   12  F12 UNL     1     -32.549   9.126  -1.015  1.00 20.00    -0.171 F 
ENDBRANCH   7   9
TORSDOF 1
