REMARK  0 active torsions:
REMARK  status: ('A' for Active; 'I' for Inactive)
ROOT
HETATM    1  C1  UNL     1     -32.634   8.546   3.152  1.00 20.00     0.027 C 
HETATM    2  C2  UNL     1     -33.690   7.724   3.889  1.00 20.00     0.027 C 
HETATM    3  C3  UNL     1     -33.317   5.660   0.542  1.00 20.00     0.009 C 
HETATM    4  C4  UNL     1     -33.283   8.156   0.715  1.00 20.00     0.030 C 
HETATM    5  C5  UNL     1     -31.441   6.744   1.794  1.00 20.00     0.030 C 
HETATM    6  C6  UNL     1     -35.054   6.785   1.948  1.00 20.00     0.030 C 
HETATM    7  C7  UNL     1     -33.213   5.372   3.025  1.00 20.00     0.030 C 
HETATM    8  C8  UNL     1     -34.179   6.913   0.697  1.00 20.00    -0.010 C 
HETATM    9  C9  UNL     1     -32.384   5.537   1.747  1.00 20.00    -0.010 C 
HETATM   10  C10 UNL     1     -32.156   8.106   1.762  1.00 20.00     0.038 C 
HETATM   11  C11 UNL     1     -34.274   6.466   3.235  1.00 20.00     0.038 C 
HETATM   12 CL12 UNL     1     -30.914   9.348   1.266  1.00 20.00    -0.119 Cl
HETATM   13 CL13 UNL     1     -35.479   5.814   4.441  1.00 20.00    -0.119 Cl
ENDROOT
TORSDOF 0
