REMARK  3 active torsions:
REMARK  status: ('A' for Active; 'I' for Inactive)
REMARK    1  A    between atoms: C1_1  and  C4_4 
REMARK       I    between atoms: C1_1  and  N10_10 
REMARK    2  A    between atoms: C8_8  and  C9_9 
REMARK    3  A    between atoms: C9_9  and  N10_10 
ROOT
HETATM    1  C1  UNL     1     -34.059   5.013   3.968  1.00 20.00     0.222 C 
HETATM    2  N10 UNL     1     -33.210   5.535   3.017  1.00 20.00    -0.352 N 
HETATM    3  O11 UNL     1     -34.951   5.609   4.560  1.00 20.00    -0.273 OA
HETATM    4  H28 UNL     1     -32.513   4.928   2.605  1.00 20.00     0.163 HD
ENDROOT
BRANCH   2   5
HETATM    5  C9  UNL     1     -33.272   6.919   2.579  1.00 20.00     0.025 C 
HETATM    6  C6  UNL     1     -34.666   7.175   1.984  1.00 20.00     0.038 C 
HETATM    7  C7  UNL     1     -33.071   7.842   3.789  1.00 20.00     0.038 C 
BRANCH   5   8
HETATM    8  C8  UNL     1     -32.209   7.178   1.485  1.00 20.00     0.026 C 
HETATM    9  C5  UNL     1     -32.199   8.593   0.917  1.00 20.00     0.007 C 
ENDBRANCH   5   8
ENDBRANCH   2   5
BRANCH   1  10
HETATM   10  C4  UNL     1     -33.818   3.570   4.262  1.00 20.00     0.078 A 
HETATM   11  C2  UNL     1     -32.449   3.146   4.679  1.00 20.00     0.015 A 
HETATM   12  C3  UNL     1     -33.568   3.164   5.677  1.00 20.00     0.015 A 
ENDBRANCH   1  10
TORSDOF 3
