REMARK  2 active torsions:
REMARK  status: ('A' for Active; 'I' for Inactive)
REMARK    1  A    between atoms: C1_1  and  C9_9 
REMARK    2  A    between atoms: C2_2  and  C8_8 
ROOT
HETATM    1  C1  UNL     1     -32.885   7.781   2.897  1.00 20.00    -0.016 C 
HETATM    2  C2  UNL     1     -33.681   6.935   3.585  1.00 20.00    -0.087 C 
HETATM    3  C3  UNL     1     -34.588   7.482   4.662  1.00 20.00     0.043 C 
ENDROOT
BRANCH   1   4
HETATM    4  C9  UNL     1     -31.878   7.535   1.777  1.00 20.00    -0.033 C 
HETATM    5  C5  UNL     1     -30.493   8.020   2.266  1.00 20.00     0.018 C 
HETATM    6  C6  UNL     1     -31.728   6.048   1.411  1.00 20.00     0.018 C 
HETATM    7  C7  UNL     1     -32.250   8.358   0.532  1.00 20.00     0.018 C 
ENDBRANCH   1   4
BRANCH   2   8
HETATM    8  C8  UNL     1     -33.812   5.448   3.359  1.00 20.00     0.029 C 
HETATM    9  C4  UNL     1     -34.801   4.793   4.313  1.00 20.00     0.010 C 
ENDBRANCH   2   8
TORSDOF 2
