REMARK  3 active torsions:
REMARK  status: ('A' for Active; 'I' for Inactive)
REMARK    1  A    between atoms: C4_4  and  C7_7 
REMARK    2  A    between atoms: C6_6  and  C7_7 
REMARK    3  A    between atoms: C7_7  and  O9_9 
ROOT
HETATM    1  C1  UNL     1     -35.033   6.467   4.084  1.00 20.00     0.035 C 
HETATM    2  C2  UNL     1     -35.369   5.045   4.479  1.00 20.00     0.168 C 
HETATM    3  C3  UNL     1     -33.290   5.041   3.429  1.00 20.00     0.174 C 
HETATM    4  C4  UNL     1     -34.071   6.247   2.937  1.00 20.00     0.040 C 
HETATM    5  O8  UNL     1     -34.206   4.251   4.203  1.00 20.00    -0.391 OA
ENDROOT
BRANCH   4   6
HETATM    6  C7  UNL     1     -33.203   7.448   2.615  1.00 20.00     0.124 C 
BRANCH   6   7
HETATM    7  C6  UNL     1     -32.223   7.142   1.476  1.00 20.00     0.027 C 
HETATM    8  C5  UNL     1     -31.307   8.318   1.165  1.00 20.00     0.007 C 
ENDBRANCH   6   7
BRANCH   6   9
HETATM    9  O9  UNL     1     -32.460   7.813   3.777  1.00 20.00    -0.395 OA
HETATM   10  H23 UNL     1     -31.919   7.043   4.010  1.00 20.00     0.210 HD
ENDBRANCH   6   9
ENDBRANCH   4   6
TORSDOF 3
