REMARK  2 active torsions:
REMARK  status: ('A' for Active; 'I' for Inactive)
REMARK    1  A    between atoms: C8_8  and  C11_11 
REMARK    2  A    between atoms: C10_10  and  C11_11 
ROOT
HETATM    1  C11 UNL     1     -32.213   7.709   1.340  1.00 20.00     0.046 C 
ENDROOT
BRANCH   1   2
HETATM    2  C8  UNL     1     -33.052   7.119   2.411  1.00 20.00    -0.076 A 
HETATM    3  C4  UNL     1     -33.438   5.842   2.555  1.00 20.00     0.003 A 
HETATM    4  C3  UNL     1     -34.247   5.716   3.739  1.00 20.00    -0.003 A 
HETATM    5  C5  UNL     1     -34.366   6.912   4.332  1.00 20.00    -0.022 A 
HETATM    6  C9  UNL     1     -33.610   7.941   3.541  1.00 20.00     0.061 A 
ENDBRANCH   1   2
BRANCH   1   7
HETATM    7  C10 UNL     1     -32.984   8.766   0.570  1.00 20.00     0.034 A 
HETATM    8  C6  UNL     1     -32.391   9.028  -0.791  1.00 20.00    -0.018 A 
HETATM    9  C1  UNL     1     -32.029  10.315  -0.883  1.00 20.00    -0.004 A 
HETATM   10  C2  UNL     1     -32.334  10.991   0.350  1.00 20.00    -0.004 A 
HETATM   11  C7  UNL     1     -32.887  10.126   1.212  1.00 20.00    -0.018 A 
ENDBRANCH   1   7
TORSDOF 2
