REMARK  4 active torsions:
REMARK  status: ('A' for Active; 'I' for Inactive)
REMARK    1  A    between atoms: C2_2  and  C3_3 
REMARK    2  A    between atoms: C3_3  and  C5_5 
REMARK    3  A    between atoms: C5_5  and  C6_6 
REMARK    4  A    between atoms: C6_6  and  C7_7 
ROOT
HETATM    1  C3  UNL     1     -33.363   6.937   2.542  1.00 20.00     0.154 C 
HETATM    2  O8  UNL     1     -33.351   5.912   1.857  1.00 20.00    -0.293 OA
ENDROOT
BRANCH   1   3
HETATM    3  C2  UNL     1     -34.116   6.942   3.843  1.00 20.00    -0.025 C 
HETATM    4  C1  UNL     1     -34.164   8.030   4.625  1.00 20.00     0.022 C 
HETATM    5  C4  UNL     1     -34.812   5.667   4.219  1.00 20.00     0.051 C 
ENDBRANCH   1   3
BRANCH   1   6
HETATM    6  C5  UNL     1     -32.634   8.200   2.100  1.00 20.00     0.084 C 
BRANCH   6   7
HETATM    7  C6  UNL     1     -31.899   8.009   0.770  1.00 20.00     0.023 C 
BRANCH   7   8
HETATM    8  C7  UNL     1     -31.092   9.231   0.346  1.00 20.00     0.115 C 
HETATM    9 CL9  UNL     1     -32.120  10.664   0.116  1.00 20.00    -0.130 Cl
ENDBRANCH   7   8
ENDBRANCH   6   7
ENDBRANCH   1   6
TORSDOF 4
