REMARK  3 active torsions:
REMARK  status: ('A' for Active; 'I' for Inactive)
REMARK    1  A    between atoms: C4_4  and  C7_7 
REMARK    2  A    between atoms: C6_6  and  C7_7 
REMARK    3  A    between atoms: C7_7  and  O9_9 
ROOT
HETATM    1  C1  UNL     1     -33.294   7.337   3.531  1.00 20.00     0.035 C 
HETATM    2  C2  UNL     1     -32.486   8.187   2.573  1.00 20.00     0.168 C 
HETATM    3  C3  UNL     1     -32.695   6.053   1.662  1.00 20.00     0.174 C 
HETATM    4  C4  UNL     1     -33.864   6.286   2.603  1.00 20.00     0.040 C 
HETATM    5  O8  UNL     1     -32.016   7.312   1.536  1.00 20.00    -0.391 OA
ENDROOT
BRANCH   4   6
HETATM    6  C7  UNL     1     -34.344   5.030   3.305  1.00 20.00     0.124 C 
BRANCH   6   7
HETATM    7  C6  UNL     1     -33.216   4.369   4.104  1.00 20.00     0.027 C 
HETATM    8  C5  UNL     1     -33.685   3.132   4.858  1.00 20.00     0.007 C 
ENDBRANCH   6   7
BRANCH   6   9
HETATM    9  O9  UNL     1     -35.404   5.372   4.197  1.00 20.00    -0.395 OA
HETATM   10  H23 UNL     1     -36.107   5.759   3.653  1.00 20.00     0.210 HD
ENDBRANCH   6   9
ENDBRANCH   4   6
TORSDOF 3
