REMARK  1 active torsions:
REMARK  status: ('A' for Active; 'I' for Inactive)
REMARK    1  A    between atoms: C1_1  and  C4_4 
ROOT
HETATM    1  C1  UNL     1     -33.556   6.314   2.515  1.00 20.00     0.172 C 
HETATM    2  C2  UNL     1     -34.825   5.036   3.875  1.00 20.00     0.160 C 
HETATM    3  C3  UNL     1     -35.290   6.417   4.309  1.00 20.00     0.103 C 
HETATM    4  N5  UNL     1     -34.067   5.131   2.610  1.00 20.00    -0.278 NA
HETATM    5  S9  UNL     1     -33.946   7.479   3.752  1.00 20.00    -0.104 SA
ENDROOT
BRANCH   1   6
HETATM    6  C4  UNL     1     -32.686   6.747   1.385  1.00 20.00     0.440 C 
HETATM    7  F6  UNL     1     -32.324   8.042   1.514  1.00 20.00    -0.164 F 
HETATM    8  F7  UNL     1     -31.554   6.012   1.327  1.00 20.00    -0.164 F 
HETATM    9  F8  UNL     1     -33.317   6.617   0.197  1.00 20.00    -0.164 F 
ENDBRANCH   1   6
TORSDOF 1
