REMARK  1 active torsions:
REMARK  status: ('A' for Active; 'I' for Inactive)
REMARK    1  A    between atoms: C4_4  and  C6_6 
ROOT
HETATM    1  C1  UNL     1     -31.469   6.143   1.347  1.00 20.00     0.135 A 
HETATM    2  C2  UNL     1     -32.478   5.303   1.764  1.00 20.00     0.136 A 
HETATM    3  C3  UNL     1     -32.424   7.867   2.507  1.00 20.00     0.144 A 
HETATM    4  C4  UNL     1     -33.434   7.027   2.923  1.00 20.00     0.065 A 
HETATM    5  N7  UNL     1     -31.424   7.440   1.711  1.00 20.00    -0.270 NA
HETATM    6  N8  UNL     1     -33.478   5.730   2.559  1.00 20.00    -0.261 NA
ENDROOT
BRANCH   4   7
HETATM    7  C6  UNL     1     -34.524   7.534   3.802  1.00 20.00     0.107 C 
HETATM    8  C5  UNL     1     -35.518   6.479   4.211  1.00 20.00     0.029 C 
HETATM    9 BR9  UNL     1     -33.756   8.370   5.403  1.00 20.00    -0.085 Br
ENDBRANCH   4   7
TORSDOF 1
