REMARK  0 active torsions:
REMARK  status: ('A' for Active; 'I' for Inactive)
ROOT
HETATM    1  C1  UNL     1     -33.008   6.248   2.174  1.00 20.00     0.025 A 
HETATM    2  C2  UNL     1     -33.883   6.092   3.180  1.00 20.00     0.091 A 
HETATM    3  C3  UNL     1     -32.519   7.638   1.980  1.00 20.00     0.227 A 
HETATM    4  C4  UNL     1     -32.479   5.205   1.242  1.00 20.00     0.055 C 
HETATM    5  O5  UNL     1     -31.730   7.968   1.107  1.00 20.00    -0.279 OA
HETATM    6  S6  UNL     1     -34.362   7.453   4.132  1.00 20.00    -0.036 SA
HETATM    7  S7  UNL     1     -33.181   8.776   3.133  1.00 20.00    -0.009 SA
HETATM    8 CL8  UNL     1     -34.583   4.567   3.588  1.00 20.00    -0.075 Cl
ENDROOT
TORSDOF 0
