REMARK  1 active torsions:
REMARK  status: ('A' for Active; 'I' for Inactive)
REMARK    1  A    between atoms: C3_3  and  C5_5 
ROOT
HETATM    1  C1  UNL     1     -31.676   4.831   0.077  1.00 20.00     0.012 C 
HETATM    2  C2  UNL     1     -31.994   5.240   1.160  1.00 20.00    -0.111 C 
HETATM    3  C4  UNL     1     -32.375   5.728   2.455  1.00 20.00     0.088 A 
HETATM    4  C5  UNL     1     -33.804   6.174   2.671  1.00 20.00     0.112 A 
HETATM    5  C6  UNL     1     -32.685   7.200   2.668  1.00 20.00    -0.018 A 
HETATM    6  C7  UNL     1     -32.220   7.817   3.966  1.00 20.00     0.017 C 
HETATM    7  C8  UNL     1     -32.641   8.165   1.505  1.00 20.00     0.017 C 
ENDROOT
BRANCH   4   8
HETATM    8  C3  UNL     1     -34.436   5.816   3.928  1.00 20.00     0.179 C 
HETATM    9  O9  UNL     1     -34.927   6.780   4.578  1.00 20.00    -0.648 OA
HETATM   10  O10 UNL     1     -34.410   4.583   4.201  1.00 20.00    -0.648 OA
ENDBRANCH   4   8
TORSDOF 1
