REMARK  2 active torsions:
REMARK  status: ('A' for Active; 'I' for Inactive)
REMARK    1  A    between atoms: C3_3  and  C6_6 
REMARK    2  A    between atoms: C4_4  and  C7_7 
ROOT
HETATM    1  C1  UNL     1     -32.665   9.615   0.500  1.00 20.00    -0.176 C 
HETATM    2  C2  UNL     1     -32.994  10.870   0.559  1.00 20.00     0.091 C 
HETATM    3  C3  UNL     1     -32.336   8.360   0.438  1.00 20.00     0.072 C 
ENDROOT
BRANCH   3   4
HETATM    4  C6  UNL     1     -32.361   7.546   1.645  1.00 20.00     0.017 A 
HETATM    5  C5  UNL     1     -32.524   6.058   1.515  1.00 20.00     0.022 A 
HETATM    6  C7  UNL     1     -33.660   6.889   2.055  1.00 20.00     0.092 A 
BRANCH   6   7
HETATM    7  C4  UNL     1     -33.941   6.798   3.474  1.00 20.00     0.177 C 
HETATM    8  O8  UNL     1     -33.952   7.897   4.094  1.00 20.00    -0.648 OA
HETATM    9  O9  UNL     1     -34.138   5.625   3.901  1.00 20.00    -0.648 OA
ENDBRANCH   6   7
ENDBRANCH   3   4
TORSDOF 2
