REMARK  1 active torsions:
REMARK  status: ('A' for Active; 'I' for Inactive)
REMARK    1  A    between atoms: C1_1  and  C2_2 
ROOT
HETATM    1  C2  UNL     1     -32.737   7.653   2.851  1.00 20.00     0.064 A 
HETATM    2  C3  UNL     1     -32.352   8.456   1.618  1.00 20.00    -0.030 A 
HETATM    3  C4  UNL     1     -32.612   6.943   1.512  1.00 20.00    -0.030 A 
HETATM    4  C5  UNL     1     -30.930   8.971   1.541  1.00 20.00     0.016 C 
HETATM    5  C6  UNL     1     -33.337   9.428   1.007  1.00 20.00     0.016 C 
HETATM    6  C7  UNL     1     -33.851   6.449   0.796  1.00 20.00     0.016 C 
HETATM    7  C8  UNL     1     -31.442   6.000   1.331  1.00 20.00     0.016 C 
ENDROOT
BRANCH   1   8
HETATM    8  C1  UNL     1     -34.043   7.832   3.500  1.00 20.00     0.237 C 
HETATM    9  O9  UNL     1     -34.818   6.909   3.727  1.00 20.00    -0.306 OA
ENDBRANCH   1   8
TORSDOF 1
