REMARK  2 active torsions:
REMARK  status: ('A' for Active; 'I' for Inactive)
REMARK    1  A    between atoms: C1_1  and  C4_4 
REMARK    2  A    between atoms: C4_4  and  C5_5 
ROOT
HETATM    1  C4  UNL     1     -33.860   5.886   3.106  1.00 20.00     0.137 C 
ENDROOT
BRANCH   1   2
HETATM    2  C1  UNL     1     -34.859   6.767   3.864  1.00 20.00     0.174 C 
HETATM    3  O6  UNL     1     -34.353   7.756   4.465  1.00 20.00    -0.648 OA
HETATM    4  O7  UNL     1     -36.061   6.382   3.812  1.00 20.00    -0.648 OA
ENDBRANCH   1   2
BRANCH   1   5
HETATM    5  C5  UNL     1     -33.122   6.589   1.955  1.00 20.00     0.039 C 
HETATM    6  C2  UNL     1     -34.088   7.112   0.887  1.00 20.00     0.032 C 
HETATM    7  C3  UNL     1     -32.224   7.725   2.456  1.00 20.00     0.032 C 
HETATM    8 CL8  UNL     1     -32.055   5.359   1.169  1.00 20.00    -0.119 Cl
ENDBRANCH   1   5
TORSDOF 2
