REMARK  0 active torsions:
REMARK  status: ('A' for Active; 'I' for Inactive)
ROOT
HETATM    1  C1  UNL     1     -32.452   8.583   0.953  1.00 20.00     0.064 C 
HETATM    2  C2  UNL     1     -31.627   6.437   1.900  1.00 20.00     0.030 C 
HETATM    3  C3  UNL     1     -32.936   5.669   1.775  1.00 20.00     0.075 C 
HETATM    4  C4  UNL     1     -33.016   7.899   3.276  1.00 20.00     0.093 C 
HETATM    5  C5  UNL     1     -31.966   7.903   2.168  1.00 20.00     0.103 C 
HETATM    6  N6  UNL     1     -32.834   9.119  -0.003  1.00 20.00    -0.197 NA
HETATM    7  S7  UNL     1     -34.050   6.430   2.986  1.00 20.00    -0.168 SA
ENDROOT
TORSDOF 0
