REMARK  2 active torsions:
REMARK  status: ('A' for Active; 'I' for Inactive)
REMARK    1  A    between atoms: C8_8  and  C9_9 
REMARK    2  A    between atoms: C8_8  and  N10_10 
ROOT
HETATM    1  C1  UNL     1     -33.066   6.217   1.579  1.00 20.00     0.039 C 
HETATM    2  C2  UNL     1     -33.747   7.809   3.418  1.00 20.00     0.039 C 
HETATM    3  C3  UNL     1     -33.338   5.016   2.498  1.00 20.00     0.273 C 
HETATM    4  C4  UNL     1     -34.666   6.622   3.748  1.00 20.00     0.273 C 
HETATM    5  C5  UNL     1     -32.668   7.491   2.350  1.00 20.00    -0.044 C 
HETATM    6  C6  UNL     1     -31.294   7.299   3.025  1.00 20.00     0.015 C 
HETATM    7  C7  UNL     1     -32.549   8.667   1.365  1.00 20.00     0.015 C 
HETATM    8  N10 UNL     1     -33.899   5.382   3.806  1.00 20.00     0.089 N 
ENDROOT
BRANCH   8   9
HETATM    9  C8  UNL     1     -34.678   4.285   4.372  1.00 20.00     0.287 C 
BRANCH   9  10
HETATM   10  C9  UNL     1     -33.870   3.004   4.506  1.00 20.00     0.144 C 
HETATM   11 CL11 UNL     1     -32.462   3.235   5.571  1.00 20.00    -0.129 Cl
ENDBRANCH   9  10
ENDBRANCH   8   9
TORSDOF 2
