REMARK  1 active torsions:
REMARK  status: ('A' for Active; 'I' for Inactive)
REMARK    1  A    between atoms: C2_2  and  C8_8 
ROOT
HETATM    1  C1  UNL     1     -32.688   6.606   1.350  1.00 20.00     0.203 C 
HETATM    2  C2  UNL     1     -32.341   7.785   2.261  1.00 20.00     0.244 C 
HETATM    3  C3  UNL     1     -33.948   6.742   3.806  1.00 20.00     0.245 C 
HETATM    4  C4  UNL     1     -33.050   5.534   3.468  1.00 20.00     0.150 C 
HETATM    5  C5  UNL     1     -35.400   6.580   3.339  1.00 20.00     0.045 C 
HETATM    6  C6  UNL     1     -33.576   4.212   4.017  1.00 20.00     0.042 C 
HETATM    7  N9  UNL     1     -33.392   7.994   3.263  1.00 20.00     0.097 N 
HETATM    8  O10 UNL     1     -32.887   5.379   2.056  1.00 20.00    -0.382 OA
HETATM    9  H27 UNL     1     -33.019   8.568   4.038  1.00 20.00     0.317 HD
ENDROOT
BRANCH   2  10
HETATM   10  C8  UNL     1     -32.136   9.062   1.451  1.00 20.00     0.033 C 
HETATM   11  C7  UNL     1     -31.039   8.912   0.448  1.00 20.00     0.007 C 
ENDBRANCH   2  10
TORSDOF 1
