REMARK  3 active torsions:
REMARK  status: ('A' for Active; 'I' for Inactive)
REMARK    1  A    between atoms: C3_3  and  C7_7 
REMARK    2  A    between atoms: C5_5  and  C6_6 
REMARK    3  A    between atoms: C6_6  and  C7_7 
ROOT
HETATM    1  C1  UNL     1     -32.814   9.901  -0.043  1.00 20.00     0.012 C 
HETATM    2  C2  UNL     1     -32.283   8.999   0.545  1.00 20.00    -0.117 C 
HETATM    3  C5  UNL     1     -31.632   7.891   1.259  1.00 20.00     0.093 C 
ENDROOT
BRANCH   3   4
HETATM    4  C6  UNL     1     -31.876   7.953   2.772  1.00 20.00     0.023 C 
BRANCH   4   5
HETATM    5  C7  UNL     1     -33.355   7.832   3.175  1.00 20.00     0.044 C 
HETATM    6  C4  UNL     1     -33.569   8.363   4.592  1.00 20.00     0.017 C 
BRANCH   5   7
HETATM    7  C3  UNL     1     -33.866   6.402   3.137  1.00 20.00     0.235 C 
HETATM    8  O8  UNL     1     -34.735   5.946   3.872  1.00 20.00    -0.306 OA
ENDBRANCH   5   7
ENDBRANCH   4   5
ENDBRANCH   3   4
TORSDOF 3
