REMARK  1 active torsions:
REMARK  status: ('A' for Active; 'I' for Inactive)
REMARK    1  A    between atoms: C1_1  and  C2_2 
ROOT
HETATM    1  C1  UNL     1     -34.343   6.168   3.328  1.00 20.00     0.417 C 
HETATM    2  F3  UNL     1     -35.265   6.062   4.316  1.00 20.00    -0.208 F 
HETATM    3  F4  UNL     1     -33.344   5.303   3.624  1.00 20.00    -0.208 F 
ENDROOT
BRANCH   1   4
HETATM    4  C2  UNL     1     -33.806   7.572   3.290  1.00 20.00     0.417 C 
HETATM    5  F5  UNL     1     -33.188   7.857   4.462  1.00 20.00    -0.208 F 
HETATM    6  F6  UNL     1     -32.870   7.673   2.314  1.00 20.00    -0.208 F 
ENDBRANCH   1   4
TORSDOF 1
