REMARK  2 active torsions:
REMARK  status: ('A' for Active; 'I' for Inactive)
REMARK    1  A    between atoms: C1_1  and  C2_2 
REMARK    2  A    between atoms: C2_2  and  C3_3 
ROOT
HETATM    1  C2  UNL     1     -33.552   5.921   2.484  1.00 20.00     0.396 C 
HETATM    2  F6  UNL     1     -34.072   5.018   1.614  1.00 20.00    -0.190 F 
HETATM    3  F7  UNL     1     -32.691   5.243   3.285  1.00 20.00    -0.190 F 
ENDROOT
BRANCH   1   4
HETATM    4  C1  UNL     1     -32.788   6.967   1.709  1.00 20.00     0.434 C 
HETATM    5  F4  UNL     1     -31.806   6.363   0.993  1.00 20.00    -0.207 F 
HETATM    6  F5  UNL     1     -32.179   7.828   2.559  1.00 20.00    -0.207 F 
ENDBRANCH   1   4
BRANCH   1   7
HETATM    7  C3  UNL     1     -34.665   6.485   3.328  1.00 20.00     0.460 C 
HETATM    8  F8  UNL     1     -35.567   7.132   2.559  1.00 20.00    -0.165 F 
HETATM    9  F9  UNL     1     -34.192   7.366   4.236  1.00 20.00    -0.165 F 
HETATM   10  F10 UNL     1     -35.319   5.512   3.997  1.00 20.00    -0.165 F 
ENDBRANCH   1   7
TORSDOF 2
