REMARK  2 active torsions:
REMARK  status: ('A' for Active; 'I' for Inactive)
REMARK    1  A    between atoms: C1_1  and  C2_2 
REMARK    2  A    between atoms: C2_2  and  C3_3 
ROOT
HETATM    1  C2  UNL     1     -33.632   6.633   2.864  1.00 20.00     0.365 C 
HETATM    2  F5  UNL     1     -33.060   7.246   3.939  1.00 20.00    -0.193 F 
HETATM    3  F6  UNL     1     -34.619   7.471   2.440  1.00 20.00    -0.193 F 
ENDROOT
BRANCH   1   4
HETATM    4  C1  UNL     1     -34.268   5.339   3.349  1.00 20.00     0.345 C 
HETATM    5  F4  UNL     1     -33.267   4.519   3.780  1.00 20.00    -0.226 F 
HETATM    6 CL9  UNL     1     -35.402   5.579   4.691  1.00 20.00    -0.083 Cl
ENDBRANCH   1   4
BRANCH   1   7
HETATM    7  C3  UNL     1     -32.588   6.534   1.763  1.00 20.00     0.388 C 
HETATM    8  F7  UNL     1     -31.562   5.760   2.207  1.00 20.00    -0.181 F 
HETATM    9  F8  UNL     1     -32.056   7.753   1.500  1.00 20.00    -0.181 F 
HETATM   10 CL10 UNL     1     -33.229   5.833   0.268  1.00 20.00    -0.042 Cl
ENDBRANCH   1   7
TORSDOF 2
