REMARK  0 active torsions:
REMARK  status: ('A' for Active; 'I' for Inactive)
ROOT
HETATM    1  C1  UNL     1     -34.525   6.969   4.024  1.00 20.00    -0.030 A 
HETATM    2  C2  UNL     1     -34.708   5.646   3.958  1.00 20.00    -0.030 A 
HETATM    3  C3  UNL     1     -33.509   7.708   3.208  1.00 20.00     0.036 A 
HETATM    4  C4  UNL     1     -33.920   4.743   3.061  1.00 20.00     0.036 A 
HETATM    5  C5  UNL     1     -33.570   6.311   1.024  1.00 20.00     0.020 A 
HETATM    6  C6  UNL     1     -32.759   6.917   2.149  1.00 20.00    -0.032 A 
HETATM    7  C7  UNL     1     -32.969   5.400   2.074  1.00 20.00    -0.032 A 
HETATM    8  C8  UNL     1     -31.424   7.521   1.789  1.00 20.00     0.016 C 
HETATM    9  C9  UNL     1     -31.844   4.494   1.637  1.00 20.00     0.016 C 
ENDROOT
TORSDOF 0
