REMARK  4 active torsions:
REMARK  status: ('A' for Active; 'I' for Inactive)
REMARK    1  A    between atoms: C2_2  and  C8_8 
REMARK    2  A    between atoms: C3_3  and  C9_9 
REMARK    3  A    between atoms: C8_8  and  C9_9 
REMARK    4  A    between atoms: C9_9  and  C10_10 
ROOT
HETATM    1  C9  UNL     1     -33.236   7.032   1.889  1.00 20.00     0.062 C 
ENDROOT
BRANCH   1   2
HETATM    2  C3  UNL     1     -33.491   7.302   3.376  1.00 20.00     0.127 C 
HETATM    3  C5  UNL     1     -34.886   7.039   3.884  1.00 20.00     0.091 C 
HETATM    4  O11 UNL     1     -32.618   7.736   4.128  1.00 20.00    -0.298 OA
ENDBRANCH   1   2
BRANCH   1   5
HETATM    5  C8  UNL     1     -32.189   8.011   1.318  1.00 20.00     0.045 C 
BRANCH   5   6
HETATM    6  C2  UNL     1     -32.728   9.405   1.067  1.00 20.00    -0.092 C 
HETATM    7  C1  UNL     1     -33.196  10.168   2.067  1.00 20.00     0.014 C 
HETATM    8  C4  UNL     1     -32.764   9.882  -0.357  1.00 20.00     0.042 C 
ENDBRANCH   5   6
ENDBRANCH   1   5
BRANCH   1   9
HETATM    9  C10 UNL     1     -32.882   5.534   1.694  1.00 20.00    -0.011 C 
HETATM   10  C6  UNL     1     -33.026   5.116   0.227  1.00 20.00     0.010 C 
HETATM   11  C7  UNL     1     -33.693   4.584   2.581  1.00 20.00     0.010 C 
ENDBRANCH   1   9
TORSDOF 4
