REMARK  2 active torsions:
REMARK  status: ('A' for Active; 'I' for Inactive)
REMARK    1  A    between atoms: C3_3  and  C8_8 
REMARK    2  A    between atoms: C4_4  and  C7_7 
ROOT
HETATM    1  C1  UNL     1     -33.563   4.294   4.093  1.00 20.00     0.065 C 
HETATM    2  C8  UNL     1     -34.069   5.616   3.673  1.00 20.00     0.183 C 
HETATM    3  N9  UNL     1     -33.159   3.254   4.415  1.00 20.00    -0.197 NA
ENDROOT
BRANCH   2   4
HETATM    4  C3  UNL     1     -33.246   6.179   2.584  1.00 20.00     0.055 A 
HETATM    5  C2  UNL     1     -32.564   5.453   1.631  1.00 20.00     0.079 A 
HETATM    6  S11 UNL     1     -31.747   6.522   0.568  1.00 20.00    -0.084 SA
HETATM    7  C4  UNL     1     -32.367   7.848   1.464  1.00 20.00     0.079 A 
HETATM    8  N10 UNL     1     -33.134   7.553   2.490  1.00 20.00    -0.249 NA
BRANCH   7   9
HETATM    9  C7  UNL     1     -32.043   9.303   1.087  1.00 20.00     0.045 A 
HETATM   10  C5  UNL     1     -33.017  10.387   1.485  1.00 20.00     0.012 A 
HETATM   11  C6  UNL     1     -32.899   9.988   0.047  1.00 20.00     0.012 A 
ENDBRANCH   7   9
ENDBRANCH   2   4
TORSDOF 2
