REMARK  3 active torsions:
REMARK  status: ('A' for Active; 'I' for Inactive)
REMARK    1  A    between atoms: C3_3  and  C4_4 
REMARK    2  A    between atoms: C4_4  and  C5_5 
REMARK    3  A    between atoms: C4_4  and  O6_6 
ROOT
HETATM    1  C1  UNL     1     -32.777   9.738  -0.100  1.00 20.00     0.012 C 
HETATM    2  C2  UNL     1     -32.295   8.834   0.526  1.00 20.00    -0.115 C 
HETATM    3  C3  UNL     1     -31.699   7.728   1.294  1.00 20.00     0.133 C 
ENDROOT
BRANCH   3   4
HETATM    4  C4  UNL     1     -32.771   6.760   1.799  1.00 20.00     0.236 C 
BRANCH   4   5
HETATM    5  C5  UNL     1     -33.421   7.261   3.074  1.00 20.00     0.413 C 
HETATM    6  F7  UNL     1     -34.322   6.371   3.543  1.00 20.00    -0.168 F 
HETATM    7  F8  UNL     1     -32.510   7.479   4.045  1.00 20.00    -0.168 F 
HETATM    8  F9  UNL     1     -34.077   8.423   2.854  1.00 20.00    -0.168 F 
ENDBRANCH   4   5
BRANCH   4   9
HETATM    9  O6  UNL     1     -32.160   5.500   2.071  1.00 20.00    -0.386 OA
HETATM   10  H14 UNL     1     -31.775   5.195   1.235  1.00 20.00     0.210 HD
ENDBRANCH   4   9
ENDBRANCH   3   4
TORSDOF 3
