REMARK  2 active torsions:
REMARK  status: ('A' for Active; 'I' for Inactive)
REMARK    1  A    between atoms: C5_5  and  C6_6 
REMARK    2  A    between atoms: C5_5  and  C7_7 
ROOT
HETATM    1  C1  UNL     1     -33.851   6.225   3.122  1.00 20.00     0.079 C 
HETATM    2  C6  UNL     1     -33.040   6.640   1.972  1.00 20.00     0.189 C 
HETATM    3  N8  UNL     1     -34.495   5.900   4.032  1.00 20.00    -0.196 NA
HETATM    4 CL9  UNL     1     -31.665   5.485   1.896  1.00 20.00    -0.109 Cl
ENDROOT
BRANCH   2   5
HETATM    5  C5  UNL     1     -32.487   8.067   2.105  1.00 20.00     0.043 C 
BRANCH   5   6
HETATM    6  C7  UNL     1     -32.134   8.825   0.790  1.00 20.00    -0.049 C 
HETATM    7  C2  UNL     1     -30.682   9.326   0.771  1.00 20.00     0.014 C 
HETATM    8  C3  UNL     1     -32.374   7.935  -0.442  1.00 20.00     0.014 C 
HETATM    9  C4  UNL     1     -33.065  10.052   0.689  1.00 20.00     0.014 C 
ENDBRANCH   5   6
ENDBRANCH   2   5
TORSDOF 2
