REMARK  1 active torsions:
REMARK  status: ('A' for Active; 'I' for Inactive)
REMARK    1  A    between atoms: C8_8  and  N10_10 
ROOT
HETATM    1  C1  UNL     1     -34.045   5.513   3.399  1.00 20.00     0.065 C 
HETATM    2  C4  UNL     1     -32.417   5.772   1.532  1.00 20.00     0.051 C 
HETATM    3  C5  UNL     1     -31.363   6.872   1.567  1.00 20.00     0.274 C 
HETATM    4  C6  UNL     1     -33.177   7.738   2.722  1.00 20.00     0.292 C 
HETATM    5  C7  UNL     1     -33.626   6.349   2.269  1.00 20.00     0.122 C 
HETATM    6  N9  UNL     1     -34.376   4.852   4.294  1.00 20.00    -0.197 NA
HETATM    7  N10 UNL     1     -32.094   8.125   1.805  1.00 20.00     0.094 N 
ENDROOT
BRANCH   7   8
HETATM    8  C8  UNL     1     -32.603   8.733   0.547  1.00 20.00     0.223 A 
HETATM    9  C2  UNL     1     -32.969  10.191   0.501  1.00 20.00     0.038 A 
HETATM   10  C3  UNL     1     -31.754   9.700  -0.231  1.00 20.00     0.038 A 
ENDBRANCH   7   8
TORSDOF 1
