REMARK  1 active torsions:
REMARK  status: ('A' for Active; 'I' for Inactive)
REMARK    1  A    between atoms: C3_3  and  C7_7 
ROOT
HETATM    1  C1  UNL     1     -33.718   7.725   3.425  1.00 20.00     0.304 C 
HETATM    2  C2  UNL     1     -33.311   6.578   2.519  1.00 20.00     0.148 C 
HETATM    3  C3  UNL     1     -32.360   8.518   1.776  1.00 20.00     0.360 C 
HETATM    4  C4  UNL     1     -32.891   5.332   3.272  1.00 20.00     0.041 C 
HETATM    5  N8  UNL     1     -33.571   8.861   2.523  1.00 20.00     0.115 N 
HETATM    6  O9  UNL     1     -32.204   7.089   1.760  1.00 20.00    -0.350 OA
HETATM    7  H24 UNL     1     -34.367   8.873   1.885  1.00 20.00     0.319 HD
ENDROOT
BRANCH   3   8
HETATM    8  C7  UNL     1     -32.443   9.030   0.349  1.00 20.00     0.036 C 
HETATM    9  C5  UNL     1     -32.563  10.555   0.326  1.00 20.00     0.014 C 
HETATM   10  C6  UNL     1     -31.226   8.581  -0.461  1.00 20.00     0.014 C 
ENDBRANCH   3   8
TORSDOF 1
