REMARK  1 active torsions:
REMARK  status: ('A' for Active; 'I' for Inactive)
REMARK    1  A    between atoms: C2_2  and  C7_7 
ROOT
HETATM    1  C1  UNL     1     -31.802   7.304   0.676  1.00 20.00     0.310 C 
HETATM    2  C2  UNL     1     -33.494   6.422   1.908  1.00 20.00     0.356 C 
HETATM    3  C3  UNL     1     -32.274   8.359   1.673  1.00 20.00     0.083 C 
HETATM    4  C4  UNL     1     -32.569   9.693   0.994  1.00 20.00     0.047 C 
HETATM    5  C5  UNL     1     -31.295   8.559   2.834  1.00 20.00     0.047 C 
HETATM    6  N8  UNL     1     -32.209   6.047   1.305  1.00 20.00     0.115 N 
HETATM    7  O9  UNL     1     -33.500   7.827   2.205  1.00 20.00    -0.345 OA
HETATM    8  H24 UNL     1     -32.336   5.316   0.607  1.00 20.00     0.319 HD
ENDROOT
BRANCH   2   9
HETATM    9  C7  UNL     1     -33.773   5.641   3.182  1.00 20.00     0.059 C 
HETATM   10  C6  UNL     1     -35.061   6.055   3.823  1.00 20.00     0.009 C 
ENDBRANCH   2   9
TORSDOF 1
