REMARK  0 active torsions:
REMARK  status: ('A' for Active; 'I' for Inactive)
ROOT
HETATM    1  C1  UNL     1     -33.767   4.488   3.976  1.00 20.00     0.107 C 
HETATM    2  C2  UNL     1     -33.017   5.794   1.999  1.00 20.00     0.038 A 
HETATM    3  C3  UNL     1     -33.461   5.705   3.301  1.00 20.00     0.086 A 
HETATM    4  C4  UNL     1     -32.794   7.145   1.598  1.00 20.00    -0.043 A 
HETATM    5  C5  UNL     1     -33.087   8.028   2.619  1.00 20.00    -0.010 A 
HETATM    6  C6  UNL     1     -32.331   7.610   0.252  1.00 20.00     0.040 C 
HETATM    7  C7  UNL     1     -32.938   9.516   2.540  1.00 20.00     0.046 C 
HETATM    8  C8  UNL     1     -31.840   9.065   0.289  1.00 20.00     0.005 C 
HETATM    9  C9  UNL     1     -32.801   9.967   1.077  1.00 20.00     0.005 C 
HETATM   10  N10 UNL     1     -34.016   3.497   4.526  1.00 20.00    -0.191 NA
HETATM   11  S11 UNL     1     -33.610   7.244   4.037  1.00 20.00    -0.083 SA
ENDROOT
TORSDOF 0
