REMARK  2 active torsions:
REMARK  status: ('A' for Active; 'I' for Inactive)
REMARK    1  A    between atoms: C1_1  and  C9_9 
REMARK    2  A    between atoms: C8_8  and  C9_9 
ROOT
HETATM    1  C2  UNL     1     -32.412   8.095   2.216  1.00 20.00     0.005 C 
HETATM    2  C3  UNL     1     -32.787   8.292   3.693  1.00 20.00     0.005 C 
HETATM    3  C4  UNL     1     -34.732   7.643   2.499  1.00 20.00     0.009 C 
HETATM    4  C5  UNL     1     -33.307   5.753   2.269  1.00 20.00     0.010 C 
HETATM    5  C6  UNL     1     -33.523   7.166   1.698  1.00 20.00    -0.014 C 
HETATM    6  C7  UNL     1     -34.045   7.417   3.848  1.00 20.00    -0.010 C 
HETATM    7  C8  UNL     1     -33.617   5.932   3.771  1.00 20.00    -0.004 C 
ENDROOT
BRANCH   7   8
HETATM    8  C9  UNL     1     -34.702   4.977   4.256  1.00 20.00     0.074 C 
BRANCH   8   9
HETATM    9  C1  UNL     1     -34.164   3.607   4.569  1.00 20.00     0.231 C 
HETATM   10  O10 UNL     1     -32.987   3.275   4.477  1.00 20.00    -0.307 OA
ENDBRANCH   8   9
ENDBRANCH   7   8
TORSDOF 2
