REMARK  1 active torsions:
REMARK  status: ('A' for Active; 'I' for Inactive)
REMARK    1  A    between atoms: C3_3  and  C5_5 
ROOT
HETATM    1  C1  UNL     1     -33.750   7.380   3.336  1.00 20.00     0.030 A 
HETATM    2  C2  UNL     1     -33.042   7.952   2.260  1.00 20.00    -0.044 A 
HETATM    3  C3  UNL     1     -33.790   6.000   3.213  1.00 20.00     0.043 A 
HETATM    4  C4  UNL     1     -32.582   7.009   1.382  1.00 20.00    -0.010 A 
HETATM    5  C6  UNL     1     -32.660   9.318   1.829  1.00 20.00     0.040 C 
HETATM    6  C7  UNL     1     -31.830   7.569   0.235  1.00 20.00     0.047 C 
HETATM    7  C8  UNL     1     -32.191   9.082   0.359  1.00 20.00     0.010 C 
HETATM    8  S10 UNL     1     -32.967   5.437   1.798  1.00 20.00    -0.091 SA
ENDROOT
BRANCH   3   9
HETATM    9  C5  UNL     1     -34.401   5.043   4.078  1.00 20.00     0.277 C 
HETATM   10  O9  UNL     1     -34.384   3.810   3.881  1.00 20.00    -0.301 OA
ENDBRANCH   3   9
TORSDOF 1
