REMARK  2 active torsions:
REMARK  status: ('A' for Active; 'I' for Inactive)
REMARK    1  A    between atoms: C1_1  and  C3_3 
REMARK    2  A    between atoms: C3_3  and  C5_5 
ROOT
HETATM    1  C3  UNL     1     -32.931   6.248   2.120  1.00 20.00     0.168 C 
HETATM    2  O6  UNL     1     -32.788   5.345   1.298  1.00 20.00    -0.292 OA
ENDROOT
BRANCH   1   3
HETATM    3  C1  UNL     1     -32.573   7.659   1.791  1.00 20.00     0.063 C 
HETATM    4  C2  UNL     1     -33.202   8.297   0.803  1.00 20.00     0.088 C 
HETATM    5 CL7  UNL     1     -32.839   9.917   0.373  1.00 20.00    -0.097 Cl
ENDBRANCH   1   3
BRANCH   1   6
HETATM    6  C5  UNL     1     -33.437   6.006   3.532  1.00 20.00     0.152 C 
HETATM    7  C4  UNL     1     -34.731   6.763   3.773  1.00 20.00     0.035 C 
HETATM    8 CL8  UNL     1     -33.699   4.256   3.751  1.00 20.00    -0.117 Cl
ENDBRANCH   1   6
TORSDOF 2
