REMARK  1 active torsions:
REMARK  status: ('A' for Active; 'I' for Inactive)
REMARK    1  A    between atoms: C11_11  and  N13_13 
ROOT
HETATM    1  C1  UNL     1     -33.921   4.011   4.249  1.00 20.00     0.086 C 
HETATM    2  C11 UNL     1     -34.500   5.334   4.033  1.00 20.00     0.357 C 
HETATM    3  N12 UNL     1     -33.465   2.958   4.422  1.00 20.00    -0.196 NA
ENDROOT
BRANCH   2   4
HETATM    4  N13 UNL     1     -33.436   6.280   3.548  1.00 20.00    -0.059 N 
HETATM    5  C8  UNL     1     -33.114   6.054   2.092  1.00 20.00     0.236 C 
HETATM    6  C6  UNL     1     -31.959   6.959   1.677  1.00 20.00     0.037 C 
HETATM    7  C10 UNL     1     -32.219   8.454   1.978  1.00 20.00    -0.037 C 
HETATM    8  C4  UNL     1     -30.979   9.304   1.651  1.00 20.00     0.010 C 
HETATM    9  C5  UNL     1     -33.255   9.071   1.020  1.00 20.00     0.010 C 
HETATM   10  C7  UNL     1     -32.624   8.612   3.453  1.00 20.00     0.037 C 
HETATM   11  C2  UNL     1     -31.018   9.501   0.138  1.00 20.00     0.001 C 
HETATM   12  C3  UNL     1     -32.485   9.369  -0.266  1.00 20.00     0.001 C 
HETATM   13  C9  UNL     1     -33.792   7.716   3.841  1.00 20.00     0.236 C 
HETATM   14  H32 UNL     1     -32.586   6.060   4.086  1.00 20.00     0.281 HD
ENDBRANCH   2   4
TORSDOF 1
