REMARK  3 active torsions:
REMARK  status: ('A' for Active; 'I' for Inactive)
REMARK    1  A    between atoms: C4_4  and  C6_6 
REMARK    2  A    between atoms: C4_4  and  C7_7 
REMARK    3  A    between atoms: C5_5  and  C6_6 
ROOT
HETATM    1  C1  UNL     1     -31.825   6.123   1.358  1.00 20.00     0.065 C 
HETATM    2  C6  UNL     1     -32.563   7.396   1.485  1.00 20.00     0.107 C 
HETATM    3  N8  UNL     1     -31.247   5.122   1.256  1.00 20.00    -0.197 NA
ENDROOT
BRANCH   2   4
HETATM    4  C4  UNL     1     -32.943   7.683   2.953  1.00 20.00     0.024 C 
BRANCH   4   5
HETATM    5  C7  UNL     1     -34.213   6.961   3.457  1.00 20.00    -0.021 C 
HETATM    6  C2  UNL     1     -34.020   5.445   3.347  1.00 20.00     0.009 C 
HETATM    7  C3  UNL     1     -34.565   7.328   4.899  1.00 20.00     0.009 C 
ENDBRANCH   4   5
ENDBRANCH   2   4
BRANCH   2   8
HETATM    8  C5  UNL     1     -31.765   8.550   0.854  1.00 20.00     0.133 C 
HETATM    9 CL9  UNL     1     -32.763   9.968   0.436  1.00 20.00    -0.129 Cl
ENDBRANCH   2   8
TORSDOF 3
