REMARK  2 active torsions:
REMARK  status: ('A' for Active; 'I' for Inactive)
REMARK    1  A    between atoms: C9_9  and  C10_10 
REMARK    2  A    between atoms: C10_10  and  N12_12 
ROOT
HETATM    1  C1  UNL     1     -32.433   9.437   0.172  1.00 20.00     0.061 C 
HETATM    2  C9  UNL     1     -32.255   8.282   1.065  1.00 20.00     0.159 C 
HETATM    3  N11 UNL     1     -32.571  10.348  -0.534  1.00 20.00    -0.197 NA
ENDROOT
BRANCH   2   4
HETATM    4  C10 UNL     1     -33.414   8.144   2.059  1.00 20.00     0.233 C 
HETATM    5  C8  UNL     1     -33.527   9.387   2.937  1.00 20.00     0.044 C 
BRANCH   4   6
HETATM    6  N12 UNL     1     -33.251   6.964   2.893  1.00 20.00     0.102 N 
HETATM    7  C4  UNL     1     -32.740   5.819   2.144  1.00 20.00     0.274 C 
HETATM    8  C2  UNL     1     -32.872   4.703   3.158  1.00 20.00     0.033 C 
HETATM    9  C3  UNL     1     -34.211   4.989   3.822  1.00 20.00     0.043 C 
HETATM   10  C5  UNL     1     -34.436   6.510   3.651  1.00 20.00     0.153 C 
HETATM   11  C6  UNL     1     -34.426   7.204   5.021  1.00 20.00     0.049 C 
HETATM   12  C7  UNL     1     -35.793   6.758   2.968  1.00 20.00     0.049 C 
ENDBRANCH   4   6
ENDBRANCH   2   4
TORSDOF 2
