REMARK  3 active torsions:
REMARK  status: ('A' for Active; 'I' for Inactive)
REMARK    1  A    between atoms: C6_6  and  N10_10 
REMARK    2  A    between atoms: C7_7  and  C8_8 
REMARK    3  A    between atoms: C8_8  and  N10_10 
ROOT
HETATM    1  C1  UNL     1     -32.992   9.105   0.231  1.00 20.00     0.013 C 
HETATM    2  C2  UNL     1     -32.449   8.334   0.974  1.00 20.00    -0.087 C 
HETATM    3  C6  UNL     1     -31.782   7.396   1.881  1.00 20.00     0.364 C 
ENDROOT
BRANCH   3   4
HETATM    4  N10 UNL     1     -32.696   6.316   2.273  1.00 20.00     0.100 N 
HETATM    5  C5  UNL     1     -33.140   5.583   1.081  1.00 20.00     0.311 C 
BRANCH   4   6
HETATM    6  C8  UNL     1     -33.824   6.833   3.015  1.00 20.00     0.232 C 
HETATM    7  C4  UNL     1     -33.333   7.589   4.247  1.00 20.00     0.044 C 
BRANCH   6   8
HETATM    8  C7  UNL     1     -34.782   5.704   3.414  1.00 20.00     0.159 C 
HETATM    9  C3  UNL     1     -34.059   4.515   3.893  1.00 20.00     0.061 C 
HETATM   10  N9  UNL     1     -33.490   3.576   4.271  1.00 20.00    -0.197 NA
ENDBRANCH   6   8
ENDBRANCH   4   6
ENDBRANCH   3   4
TORSDOF 3
