REMARK  3 active torsions:
REMARK  status: ('A' for Active; 'I' for Inactive)
REMARK    1  A    between atoms: C3_3  and  C4_4 
REMARK    2  A    between atoms: C4_4  and  C6_6 
REMARK    3  A    between atoms: C5_5  and  C6_6 
ROOT
HETATM    1  C1  UNL     1     -34.058   6.792   3.684  1.00 20.00     0.065 C 
HETATM    2  C6  UNL     1     -33.673   5.769   2.691  1.00 20.00     0.106 C 
HETATM    3  N7  UNL     1     -34.362   7.595   4.464  1.00 20.00    -0.197 NA
ENDROOT
BRANCH   2   4
HETATM    4  C4  UNL     1     -32.812   4.661   3.329  1.00 20.00     0.020 C 
BRANCH   4   5
HETATM    5  C3  UNL     1     -33.535   3.936   4.470  1.00 20.00    -0.003 C 
HETATM    6  C2  UNL     1     -32.653   2.864   5.092  1.00 20.00     0.005 C 
ENDBRANCH   4   5
ENDBRANCH   2   4
BRANCH   2   7
HETATM    7  C5  UNL     1     -32.984   6.421   1.481  1.00 20.00     0.133 C 
HETATM    8 CL8  UNL     1     -31.490   7.301   1.901  1.00 20.00    -0.129 Cl
ENDBRANCH   2   7
TORSDOF 3
