REMARK  3 active torsions:
REMARK  status: ('A' for Active; 'I' for Inactive)
REMARK    1  A    between atoms: C5_5  and  C7_7 
REMARK    2  A    between atoms: C6_6  and  C7_7 
REMARK    3  A    between atoms: C7_7  and  O8_8 
ROOT
HETATM    1  C1  UNL     1     -35.389   5.699   4.217  1.00 20.00     0.012 C 
HETATM    2  C2  UNL     1     -34.310   5.620   3.698  1.00 20.00    -0.115 C 
HETATM    3  C5  UNL     1     -32.982   5.517   3.069  1.00 20.00     0.130 C 
ENDROOT
BRANCH   3   4
HETATM    4  C7  UNL     1     -32.759   6.554   1.947  1.00 20.00     0.064 C 
HETATM    5  C4  UNL     1     -33.811   6.350   0.848  1.00 20.00     0.046 C 
BRANCH   4   6
HETATM    6  C6  UNL     1     -32.744   8.020   2.430  1.00 20.00     0.034 C 
HETATM    7  C3  UNL     1     -32.425   9.058   1.364  1.00 20.00     0.008 C 
ENDBRANCH   4   6
BRANCH   4   8
HETATM    8  O8  UNL     1     -31.478   6.308   1.347  1.00 20.00    -0.389 OA
HETATM    9  H20 UNL     1     -31.393   6.953   0.631  1.00 20.00     0.210 HD
ENDBRANCH   4   8
ENDBRANCH   3   4
TORSDOF 3
