REMARK  0 active torsions:
REMARK  status: ('A' for Active; 'I' for Inactive)
ROOT
HETATM    1  C1  UNL     1     -34.093   7.804   3.743  1.00 20.00     0.006 C 
HETATM    2  C2  UNL     1     -34.683   6.397   3.886  1.00 20.00     0.006 C 
HETATM    3  C3  UNL     1     -32.884   7.667   2.823  1.00 20.00     0.079 C 
HETATM    4  C4  UNL     1     -33.800   5.480   3.044  1.00 20.00     0.079 C 
HETATM    5  C5  UNL     1     -33.188   6.417   2.028  1.00 20.00     0.243 C 
HETATM    6  F6  UNL     1     -32.088   5.898   1.454  1.00 20.00    -0.206 F 
HETATM    7  F7  UNL     1     -34.078   6.691   1.047  1.00 20.00    -0.206 F 
ENDROOT
TORSDOF 0
