REMARK  3 active torsions:
REMARK  status: ('A' for Active; 'I' for Inactive)
REMARK    1  A    between atoms: C2_2  and  C3_3 
REMARK    2  A    between atoms: C2_2  and  C4_4 
REMARK    3  A    between atoms: C3_3  and  N5_5 
ROOT
HETATM    1  C1  UNL     1     -32.258   8.326   1.138  1.00 20.00     0.332 C 
HETATM    2  N5  UNL     1     -32.251   7.354   1.797  1.00 20.00    -0.247 NA
HETATM    3  O6  UNL     1     -32.264   9.301   0.480  1.00 20.00    -0.260 OA
ENDROOT
BRANCH   2   4
HETATM    4  C3  UNL     1     -33.155   6.302   1.331  1.00 20.00     0.162 C 
BRANCH   4   5
HETATM    5  C2  UNL     1     -34.507   6.477   2.010  1.00 20.00     0.139 C 
BRANCH   5   6
HETATM    6  C4  UNL     1     -34.398   6.388   3.516  1.00 20.00     0.389 C 
HETATM    7  F7  UNL     1     -35.608   6.505   4.104  1.00 20.00    -0.171 F 
HETATM    8  F8  UNL     1     -33.877   5.197   3.884  1.00 20.00    -0.171 F 
HETATM    9  F9  UNL     1     -33.598   7.356   4.009  1.00 20.00    -0.171 F 
ENDBRANCH   5   6
ENDBRANCH   4   5
ENDBRANCH   2   4
TORSDOF 3
