REMARK  0 active torsions:
REMARK  status: ('A' for Active; 'I' for Inactive)
ROOT
HETATM    1  C1  UNL     1     -33.819   7.320   4.642  1.00 20.00     0.059 C 
HETATM    2  C2  UNL     1     -33.033   7.976   3.774  1.00 20.00     0.059 C 
HETATM    3  C3  UNL     1     -34.468   6.150   3.978  1.00 20.00     0.332 C 
HETATM    4  C4  UNL     1     -33.071   7.316   2.434  1.00 20.00     0.332 C 
HETATM    5  C5  UNL     1     -33.521   5.921   2.817  1.00 20.00     0.379 C 
HETATM    6  F6  UNL     1     -34.580   5.048   4.747  1.00 20.00    -0.195 F 
HETATM    7  F7  UNL     1     -35.705   6.472   3.529  1.00 20.00    -0.195 F 
HETATM    8  F8  UNL     1     -33.985   7.908   1.628  1.00 20.00    -0.195 F 
HETATM    9  F9  UNL     1     -31.894   7.291   1.778  1.00 20.00    -0.195 F 
HETATM   10  F10 UNL     1     -34.077   5.243   1.802  1.00 20.00    -0.192 F 
HETATM   11  F11 UNL     1     -32.449   5.206   3.247  1.00 20.00    -0.192 F 
ENDROOT
TORSDOF 0
