REMARK  1 active torsions:
REMARK  status: ('A' for Active; 'I' for Inactive)
REMARK    1  A    between atoms: C2_2  and  C4_4 
ROOT
HETATM    1  C3  UNL     1     -32.504   7.135   0.360  1.00 20.00     0.102 C 
HETATM    2  C4  UNL     1     -32.114   8.285   1.332  1.00 20.00     0.035 C 
HETATM    3  C5  UNL     1     -32.713   6.220   1.587  1.00 20.00     0.295 C 
HETATM    4  C6  UNL     1     -32.949   7.512   2.432  1.00 20.00     0.254 C 
HETATM    5  C7  UNL     1     -30.603   8.405   1.551  1.00 20.00     0.025 C 
HETATM    6  F8  UNL     1     -31.643   5.468   1.934  1.00 20.00    -0.201 F 
HETATM    7  F9  UNL     1     -33.768   5.379   1.512  1.00 20.00    -0.201 F 
HETATM    8  F10 UNL     1     -34.264   7.863   2.484  1.00 20.00    -0.218 F 
HETATM    9 CL11 UNL     1     -32.318   7.486   4.104  1.00 20.00    -0.075 Cl
ENDROOT
BRANCH   2  10
HETATM   10  C2  UNL     1     -32.704   9.599   0.949  1.00 20.00    -0.023 C 
HETATM   11  C1  UNL     1     -32.472  10.212  -0.217  1.00 20.00     0.008 C 
ENDBRANCH   2  10
TORSDOF 1
