REMARK  2 active torsions:
REMARK  status: ('A' for Active; 'I' for Inactive)
REMARK    1  A    between atoms: C1_1  and  C3_3 
REMARK    2  A    between atoms: C3_3  and  C4_4 
ROOT
HETATM    1  C1  UNL     1     -32.981   6.626   2.244  1.00 20.00     0.162 C 
HETATM    2  C2  UNL     1     -33.879   6.185   3.130  1.00 20.00     0.301 C 
HETATM    3  F5  UNL     1     -32.374   5.712   1.452  1.00 20.00    -0.205 F 
HETATM    4  F6  UNL     1     -34.152   4.868   3.236  1.00 20.00    -0.170 F 
HETATM    5  F7  UNL     1     -34.521   7.066   3.925  1.00 20.00    -0.170 F 
ENDROOT
BRANCH   1   6
HETATM    6  C3  UNL     1     -32.614   8.068   2.056  1.00 20.00     0.086 C 
BRANCH   6   7
HETATM    7  C4  UNL     1     -32.886   8.521   0.622  1.00 20.00     0.086 C 
HETATM    8  I8  UNL     1     -32.387  10.587   0.376  1.00 20.00    -0.090 I 
ENDBRANCH   6   7
ENDBRANCH   1   6
TORSDOF 2
