REMARK  1 active torsions:
REMARK  status: ('A' for Active; 'I' for Inactive)
REMARK    1  A    between atoms: C2_2  and  C3_3 
ROOT
HETATM    1  C1  UNL     1     -31.951   7.974   2.406  1.00 20.00     0.071 C 
HETATM    2  C3  UNL     1     -32.847   6.821   1.975  1.00 20.00     0.187 C 
HETATM    3  F4  UNL     1     -33.669   7.264   0.983  1.00 20.00    -0.225 F 
HETATM    4 CL6  UNL     1     -31.826   5.516   1.296  1.00 20.00    -0.082 Cl
ENDROOT
BRANCH   2   5
HETATM    5  C2  UNL     1     -33.703   6.240   3.098  1.00 20.00     0.174 C 
HETATM    6 CL5  UNL     1     -34.834   7.441   3.773  1.00 20.00    -0.126 Cl
ENDBRANCH   2   5
TORSDOF 1
