REMARK  1 active torsions:
REMARK  status: ('A' for Active; 'I' for Inactive)
REMARK    1  A    between atoms: C1_1  and  C2_2 
ROOT
HETATM    1  C2  UNL     1     -33.056   6.879   2.302  1.00 20.00     0.299 C 
HETATM    2  F4  UNL     1     -32.143   5.966   2.733  1.00 20.00    -0.203 F 
HETATM    3 CL6  UNL     1     -32.174   8.339   1.775  1.00 20.00    -0.061 Cl
HETATM    4 CL7  UNL     1     -33.935   6.201   0.907  1.00 20.00    -0.061 Cl
ENDROOT
BRANCH   1   5
HETATM    5  C1  UNL     1     -33.996   7.225   3.450  1.00 20.00     0.336 C 
HETATM    6  F3  UNL     1     -33.270   7.762   4.470  1.00 20.00    -0.227 F 
HETATM    7 CL5  UNL     1     -34.840   5.789   4.083  1.00 20.00    -0.083 Cl
ENDBRANCH   1   5
TORSDOF 1
