REMARK  0 active torsions:
REMARK  status: ('A' for Active; 'I' for Inactive)
ROOT
HETATM    1  C1  UNL     1     -33.796   6.815   3.170  1.00 20.00     0.219 C 
HETATM    2  C2  UNL     1     -32.914   6.833   2.162  1.00 20.00     0.153 C 
HETATM    3  F3  UNL     1     -34.261   7.988   3.660  1.00 20.00    -0.190 F 
HETATM    4 CL4  UNL     1     -34.388   5.364   3.895  1.00 20.00    -0.049 Cl
HETATM    5 CL5  UNL     1     -32.302   5.347   1.515  1.00 20.00    -0.067 Cl
HETATM    6 CL6  UNL     1     -32.324   8.289   1.438  1.00 20.00    -0.067 Cl
ENDROOT
TORSDOF 0
