REMARK  0 active torsions:
REMARK  status: ('A' for Active; 'I' for Inactive)
ROOT
HETATM    1  C1  UNL     1     -33.645   7.431   3.740  1.00 20.00     0.101 C 
HETATM    2  C2  UNL     1     -32.550   8.275   1.916  1.00 20.00     0.055 C 
HETATM    3  C3  UNL     1     -33.355   6.019   1.680  1.00 20.00     0.145 C 
HETATM    4  C4  UNL     1     -32.498   9.369   1.138  1.00 20.00     0.112 C 
HETATM    5  C5  UNL     1     -33.998   6.140   3.044  1.00 20.00     0.092 C 
HETATM    6  C6  UNL     1     -32.129   6.891   1.458  1.00 20.00     0.105 C 
HETATM    7  C7  UNL     1     -33.574   4.965   3.915  1.00 20.00     0.023 C 
HETATM    8  C8  UNL     1     -31.609   6.759   0.027  1.00 20.00     0.025 C 
HETATM    9  N9  UNL     1     -32.977   8.414   3.220  1.00 20.00    -0.267 NA
HETATM   10  O10 UNL     1     -33.766   5.210   0.850  1.00 20.00    -0.296 OA
HETATM   11 CL11 UNL     1     -31.945   9.333  -0.476  1.00 20.00    -0.095 Cl
ENDROOT
TORSDOF 0
