REMARK  0 active torsions:
REMARK  status: ('A' for Active; 'I' for Inactive)
ROOT
HETATM    1  C1  UNL     1     -32.749   8.280   3.320  1.00 20.00    -0.011 C 
HETATM    2  C2  UNL     1     -32.303   8.014   2.084  1.00 20.00    -0.015 C 
HETATM    3  C3  UNL     1     -33.632   7.345   4.097  1.00 20.00     0.036 C 
HETATM    4  C4  UNL     1     -32.624   6.740   1.353  1.00 20.00     0.047 C 
HETATM    5  C5  UNL     1     -33.251   5.668   2.254  1.00 20.00     0.014 C 
HETATM    6  C6  UNL     1     -34.295   6.239   3.239  1.00 20.00    -0.044 C 
HETATM    7  C7  UNL     1     -34.796   5.113   4.161  1.00 20.00     0.015 C 
HETATM    8  C8  UNL     1     -35.509   6.807   2.474  1.00 20.00     0.015 C 
HETATM    9 BR9  UNL     1     -31.220   9.214   1.146  1.00 20.00    -0.056 Br
ENDROOT
TORSDOF 0
