REMARK  1 active torsions:
REMARK  status: ('A' for Active; 'I' for Inactive)
REMARK    1  A    between atoms: C5_5  and  N7_7 
ROOT
HETATM    1  C1  UNL     1     -32.265   8.409   1.279  1.00 20.00     0.160 C 
HETATM    2  N7  UNL     1     -32.058   7.738   2.217  1.00 20.00    -0.237 NA
HETATM    3  S9  UNL     1     -32.515   9.341   0.012  1.00 20.00    -0.055 SA
ENDROOT
BRANCH   2   4
HETATM    4  C5  UNL     1     -33.063   6.693   2.454  1.00 20.00     0.152 C 
HETATM    5  C3  UNL     1     -32.663   5.903   3.702  1.00 20.00     0.065 C 
HETATM    6  C2  UNL     1     -33.989   5.462   4.268  1.00 20.00     0.031 C 
HETATM    7  C4  UNL     1     -34.868   6.647   3.948  1.00 20.00     0.171 C 
HETATM    8  O8  UNL     1     -34.408   7.162   2.692  1.00 20.00    -0.359 OA
HETATM    9  C6  UNL     1     -33.114   5.807   1.207  1.00 20.00     0.073 C 
ENDBRANCH   2   4
TORSDOF 1
