REMARK  0 active torsions:
REMARK  status: ('A' for Active; 'I' for Inactive)
ROOT
HETATM    1  C1  UNL     1     -31.511   6.102   1.579  1.00 20.00     0.009 C 
HETATM    2  C2  UNL     1     -33.877   6.030   0.738  1.00 20.00     0.009 C 
HETATM    3  C3  UNL     1     -33.413   5.895   3.198  1.00 20.00     0.013 C 
HETATM    4  C4  UNL     1     -32.094   8.027   3.066  1.00 20.00     0.014 C 
HETATM    5  C5  UNL     1     -34.466   7.955   2.223  1.00 20.00     0.014 C 
HETATM    6  C6  UNL     1     -32.905   5.493   1.803  1.00 20.00    -0.013 C 
HETATM    7  C7  UNL     1     -31.583   7.640   1.664  1.00 20.00    -0.009 C 
HETATM    8  C8  UNL     1     -33.957   7.568   0.821  1.00 20.00    -0.009 C 
HETATM    9  C9  UNL     1     -32.545   8.147   0.563  1.00 20.00    -0.010 C 
HETATM   10  C10 UNL     1     -33.501   7.435   3.314  1.00 20.00    -0.043 C 
HETATM   11  C11 UNL     1     -32.545   9.672   0.433  1.00 20.00     0.010 C 
HETATM   12  C12 UNL     1     -34.007   7.833   4.703  1.00 20.00     0.015 C 
ENDROOT
TORSDOF 0
