REMARK  2 active torsions:
REMARK  status: ('A' for Active; 'I' for Inactive)
REMARK    1  A    between atoms: C1_1  and  C5_5 
REMARK    2  A    between atoms: C5_5  and  C7_7 
ROOT
HETATM    1  C2  UNL     1     -31.967   9.006   0.452  1.00 20.00     0.002 C 
HETATM    2  C3  UNL     1     -31.408   7.617   0.806  1.00 20.00     0.020 C 
HETATM    3  C4  UNL     1     -33.262   8.618   1.186  1.00 20.00     0.020 C 
HETATM    4  C5  UNL     1     -32.453   7.530   1.962  1.00 20.00     0.048 C 
ENDROOT
BRANCH   4   5
HETATM    5  C1  UNL     1     -33.164   6.156   2.111  1.00 20.00     0.181 C 
HETATM    6  O8  UNL     1     -34.010   6.085   3.045  1.00 20.00    -0.647 OA
HETATM    7  O9  UNL     1     -32.805   5.281   1.274  1.00 20.00    -0.647 OA
ENDBRANCH   4   5
BRANCH   4   8
HETATM    8  C7  UNL     1     -31.914   8.017   3.309  1.00 20.00     0.016 C 
HETATM    9  C6  UNL     1     -33.006   8.182   4.316  1.00 20.00     0.006 C 
ENDBRANCH   4   8
TORSDOF 2
