REMARK  2 active torsions:
REMARK  status: ('A' for Active; 'I' for Inactive)
REMARK    1  A    between atoms: C1_1  and  C3_3 
REMARK    2  A    between atoms: C4_4  and  O10_10 
ROOT
HETATM    1  C3  UNL     1     -33.271   8.289   1.688  1.00 20.00     0.048 A 
HETATM    2  C4  UNL     1     -32.355   7.112   1.919  1.00 20.00     0.135 A 
HETATM    3  C5  UNL     1     -33.010   7.795   3.102  1.00 20.00    -0.012 A 
HETATM    4  C8  UNL     1     -34.152   7.109   3.811  1.00 20.00     0.018 C 
HETATM    5  C9  UNL     1     -32.111   8.574   4.031  1.00 20.00     0.018 C 
ENDROOT
BRANCH   1   6
HETATM    6  C1  UNL     1     -32.701   9.543   1.216  1.00 20.00    -0.017 C 
HETATM    7  C2  UNL     1     -32.403   9.887  -0.051  1.00 20.00    -0.091 C 
HETATM    8  C6  UNL     1     -31.816  11.233  -0.374  1.00 20.00     0.042 C 
HETATM    9  C7  UNL     1     -32.621   8.988  -1.235  1.00 20.00     0.042 C 
ENDBRANCH   1   6
BRANCH   2  10
HETATM   10  O10 UNL     1     -32.875   5.829   1.528  1.00 20.00    -0.394 OA
HETATM   11  H26 UNL     1     -33.053   5.895   0.581  1.00 20.00     0.210 HD
ENDBRANCH   2  10
TORSDOF 2
