REMARK  0 active torsions:
REMARK  status: ('A' for Active; 'I' for Inactive)
ROOT
HETATM    1  C1  UNL     1     -32.990   6.568   2.009  1.00 20.00    -0.054 C 
HETATM    2  C2  UNL     1     -33.621   6.612   3.199  1.00 20.00     0.091 C 
HETATM    3  C3  UNL     1     -32.349   7.796   1.418  1.00 20.00     0.046 C 
HETATM    4  C4  UNL     1     -32.868   5.338   1.153  1.00 20.00     0.046 C 
HETATM    5  C5  UNL     1     -34.258   5.459   3.904  1.00 20.00     0.082 C 
HETATM    6  F6  UNL     1     -33.668   7.803   3.846  1.00 20.00    -0.211 F 
ENDROOT
TORSDOF 0
