REMARK  1 active torsions:
REMARK  status: ('A' for Active; 'I' for Inactive)
REMARK    1  A    between atoms: C1_1  and  C3_3 
ROOT
HETATM    1  C1  UNL     1     -33.621   5.795   2.972  1.00 20.00     0.249 C 
HETATM    2  C2  UNL     1     -32.790   6.234   2.018  1.00 20.00     0.229 C 
HETATM    3  F4  UNL     1     -33.526   4.503   3.368  1.00 20.00    -0.197 F 
HETATM    4  F5  UNL     1     -31.883   5.394   1.471  1.00 20.00    -0.189 F 
HETATM    5 CL9  UNL     1     -32.844   7.863   1.455  1.00 20.00    -0.049 Cl
ENDROOT
BRANCH   1   6
HETATM    6  C3  UNL     1     -34.656   6.628   3.643  1.00 20.00     0.448 C 
HETATM    7  F6  UNL     1     -35.343   5.908   4.566  1.00 20.00    -0.164 F 
HETATM    8  F7  UNL     1     -34.155   7.711   4.287  1.00 20.00    -0.164 F 
HETATM    9  F8  UNL     1     -35.569   7.090   2.751  1.00 20.00    -0.164 F 
ENDBRANCH   1   6
TORSDOF 1
