REMARK  1 active torsions:
REMARK  status: ('A' for Active; 'I' for Inactive)
REMARK    1  A    between atoms: C2_2  and  C3_3 
ROOT
HETATM    1  C3  UNL     1     -33.580   7.077   3.221  1.00 20.00     0.351 C 
HETATM    2  F5  UNL     1     -34.692   7.803   2.929  1.00 20.00    -0.185 F 
HETATM    3  F6  UNL     1     -32.940   7.744   4.217  1.00 20.00    -0.185 F 
HETATM    4 BR7  UNL     1     -34.112   5.318   3.859  1.00 20.00    -0.003 Br
ENDROOT
BRANCH   1   5
HETATM    5  C2  UNL     1     -32.683   6.898   2.044  1.00 20.00     0.167 C 
HETATM    6  C1  UNL     1     -31.694   7.735   1.714  1.00 20.00     0.059 C 
HETATM    7  F4  UNL     1     -32.856   5.798   1.274  1.00 20.00    -0.204 F 
ENDBRANCH   1   5
TORSDOF 1
