REMARK  0 active torsions:
REMARK  status: ('A' for Active; 'I' for Inactive)
ROOT
HETATM    1  C1  UNL     1     -33.069   7.837   2.927  1.00 20.00     0.238 C 
HETATM    2  C2  UNL     1     -33.565   6.616   2.732  1.00 20.00     0.189 C 
HETATM    3  F3  UNL     1     -31.938   8.241   2.322  1.00 20.00    -0.216 F 
HETATM    4  F4  UNL     1     -34.706   6.272   3.370  1.00 20.00    -0.196 F 
HETATM    5 BR5  UNL     1     -32.757   5.362   1.623  1.00 20.00    -0.015 Br
ENDROOT
TORSDOF 0
