REMARK  1 active torsions:
REMARK  status: ('A' for Active; 'I' for Inactive)
REMARK    1  A    between atoms: C2_2  and  C4_4 
ROOT
HETATM    1  C1  UNL     1     -32.581   6.287   1.952  1.00 20.00     0.116 C 
HETATM    2  C2  UNL     1     -33.613   5.934   2.738  1.00 20.00     0.151 C 
HETATM    3  C3  UNL     1     -31.608   5.371   1.279  1.00 20.00     0.084 C 
HETATM    4  F5  UNL     1     -32.383   7.610   1.731  1.00 20.00    -0.209 F 
HETATM    5 CL9  UNL     1     -33.972   4.274   3.098  1.00 20.00    -0.076 Cl
ENDROOT
BRANCH   2   6
HETATM    6  C4  UNL     1     -34.555   6.898   3.385  1.00 20.00     0.430 C 
HETATM    7  F6  UNL     1     -35.500   6.259   4.123  1.00 20.00    -0.165 F 
HETATM    8  F7  UNL     1     -33.944   7.774   4.223  1.00 20.00    -0.165 F 
HETATM    9  F8  UNL     1     -35.217   7.647   2.465  1.00 20.00    -0.165 F 
ENDBRANCH   2   6
TORSDOF 1
