REMARK  0 active torsions:
REMARK  status: ('A' for Active; 'I' for Inactive)
ROOT
HETATM    1  C1  UNL     1     -32.055   7.837   2.505  1.00 20.00     0.145 C 
HETATM    2  C2  UNL     1     -33.244   7.468   2.964  1.00 20.00    -0.034 C 
HETATM    3  C3  UNL     1     -33.995   7.665   4.220  1.00 20.00     0.038 C 
HETATM    4  C4  UNL     1     -34.601   6.260   4.410  1.00 20.00     0.007 C 
HETATM    5  C5  UNL     1     -33.879   5.329   3.411  1.00 20.00     0.034 C 
HETATM    6  C6  UNL     1     -33.605   6.239   2.233  1.00 20.00     0.161 C 
HETATM    7  N7  UNL     1     -31.584   6.952   1.564  1.00 20.00    -0.167 NA
HETATM    8  N8  UNL     1     -32.378   5.964   1.459  1.00 20.00    -0.183 NA
ENDROOT
TORSDOF 0
