REMARK  0 active torsions:
REMARK  status: ('A' for Active; 'I' for Inactive)
ROOT
HETATM    1  C1  UNL     1     -34.415   6.829   3.844  1.00 20.00     0.009 C 
HETATM    2  C2  UNL     1     -34.144   5.325   3.894  1.00 20.00     0.035 C 
HETATM    3  C3  UNL     1     -33.167   7.604   3.421  1.00 20.00     0.082 C 
HETATM    4  C4  UNL     1     -33.449   4.825   2.665  1.00 20.00     0.157 A 
HETATM    5  C5  UNL     1     -32.718   5.768   1.746  1.00 20.00     0.223 A 
HETATM    6  C6  UNL     1     -32.757   7.231   2.004  1.00 20.00     0.271 C 
HETATM    7  O7  UNL     1     -32.017   4.984   2.713  1.00 20.00    -0.369 OA
HETATM    8  F8  UNL     1     -33.634   7.796   1.131  1.00 20.00    -0.203 F 
HETATM    9  F9  UNL     1     -31.542   7.772   1.729  1.00 20.00    -0.203 F 
ENDROOT
TORSDOF 0
