REMARK  0 active torsions:
REMARK  status: ('A' for Active; 'I' for Inactive)
ROOT
HETATM    1  C1  UNL     1     -33.201   5.964   2.169  1.00 20.00     0.164 C 
HETATM    2  C2  UNL     1     -34.486   5.269   2.552  1.00 20.00     0.107 C 
HETATM    3  C3  UNL     1     -34.803   5.573   4.008  1.00 20.00     0.175 C 
HETATM    4  C4  UNL     1     -33.530   7.561   4.027  1.00 20.00     0.212 C 
HETATM    5  C5  UNL     1     -33.098   7.412   2.579  1.00 20.00     0.263 C 
HETATM    6  O6  UNL     1     -32.339   5.413   1.489  1.00 20.00    -0.295 OA
HETATM    7  O7  UNL     1     -34.819   6.984   4.238  1.00 20.00    -0.388 OA
HETATM    8  F8  UNL     1     -31.827   7.874   2.449  1.00 20.00    -0.239 F 
ENDROOT
TORSDOF 0
