REMARK  2 active torsions:
REMARK  status: ('A' for Active; 'I' for Inactive)
REMARK    1  A    between atoms: C1_1  and  C3_3 
REMARK    2  A    between atoms: C3_3  and  C4_4 
ROOT
HETATM    1  C1  UNL     1     -32.935   7.079   2.376  1.00 20.00     0.078 C 
HETATM    2  S5  UNL     1     -34.199   6.710   3.393  1.00 20.00    -0.072 SA
HETATM    3 CL6  UNL     1     -32.198   5.802   1.507  1.00 20.00    -0.076 Cl
ENDROOT
BRANCH   1   4
HETATM    4  C3  UNL     1     -32.405   8.469   2.147  1.00 20.00     0.063 C 
BRANCH   4   5
HETATM    5  C4  UNL     1     -33.093   9.129   0.952  1.00 20.00     0.002 C 
HETATM    6  C2  UNL     1     -32.588  10.546   0.732  1.00 20.00     0.005 C 
ENDBRANCH   4   5
ENDBRANCH   1   4
TORSDOF 2
