REMARK  3 active torsions:
REMARK  status: ('A' for Active; 'I' for Inactive)
REMARK    1  A    between atoms: C3_3  and  C5_5 
REMARK    2  A    between atoms: C5_5  and  C6_6 
REMARK    3  A    between atoms: C6_6  and  S9_9 
ROOT
HETATM    1  C1  UNL     1     -35.206   6.589   3.951  1.00 20.00     0.179 C 
HETATM    2  C2  UNL     1     -34.302   5.401   3.674  1.00 20.00     0.103 C 
HETATM    3  C3  UNL     1     -33.684   7.689   2.596  1.00 20.00     0.183 C 
HETATM    4  O7  UNL     1     -34.419   7.780   3.824  1.00 20.00    -0.375 OA
HETATM    5  S8  UNL     1     -33.363   5.941   2.235  1.00 20.00    -0.135 SA
ENDROOT
BRANCH   3   6
HETATM    6  C5  UNL     1     -32.391   8.470   2.740  1.00 20.00     0.057 C 
BRANCH   6   7
HETATM    7  C6  UNL     1     -31.766   8.890   1.401  1.00 20.00     0.043 C 
HETATM    8  C4  UNL     1     -31.434   7.667   0.549  1.00 20.00     0.021 C 
BRANCH   7   9
HETATM    9  S9  UNL     1     -32.874   9.986   0.445  1.00 20.00    -0.178 SA
HETATM   10  H21 UNL     1     -32.019  10.185  -0.565  1.00 20.00     0.102 HD
ENDBRANCH   7   9
ENDBRANCH   6   7
ENDBRANCH   3   6
TORSDOF 3
