REMARK  1 active torsions:
REMARK  status: ('A' for Active; 'I' for Inactive)
REMARK    1  A    between atoms: C5_5  and  C6_6 
ROOT
HETATM    1  C1  UNL     1     -33.386   6.144   2.143  1.00 20.00     0.015 C 
HETATM    2  C2  UNL     1     -33.742   7.837   4.012  1.00 20.00     0.015 C 
HETATM    3  C3  UNL     1     -32.181   6.878   1.568  1.00 20.00     0.074 C 
HETATM    4  C4  UNL     1     -32.565   8.707   3.587  1.00 20.00     0.074 C 
HETATM    5  C5  UNL     1     -33.560   6.355   3.654  1.00 20.00    -0.003 C 
HETATM    6  S7  UNL     1     -32.313   8.674   1.791  1.00 20.00    -0.169 SA
ENDROOT
BRANCH   5   7
HETATM    7  C6  UNL     1     -34.750   5.541   4.165  1.00 20.00     0.089 C 
HETATM    8 BR8  UNL     1     -34.224   3.685   4.359  1.00 20.00    -0.096 Br
ENDBRANCH   5   7
TORSDOF 1
