REMARK  1 active torsions:
REMARK  status: ('A' for Active; 'I' for Inactive)
REMARK    1  A    between atoms: C1_1  and  C3_3 
ROOT
HETATM    1  C1  UNL     1     -33.462   5.869   2.566  1.00 20.00     0.143 C 
HETATM    2  C2  UNL     1     -32.497   6.106   1.669  1.00 20.00     0.190 C 
HETATM    3  F4  UNL     1     -32.108   7.372   1.407  1.00 20.00    -0.193 F 
HETATM    4 CL8  UNL     1     -31.727   4.812   0.829  1.00 20.00    -0.051 Cl
ENDROOT
BRANCH   1   5
HETATM    5  C3  UNL     1     -34.184   6.915   3.342  1.00 20.00     0.411 C 
HETATM    6  F5  UNL     1     -35.120   6.416   4.189  1.00 20.00    -0.167 F 
HETATM    7  F6  UNL     1     -34.825   7.784   2.519  1.00 20.00    -0.167 F 
HETATM    8  F7  UNL     1     -33.327   7.650   4.096  1.00 20.00    -0.167 F 
ENDBRANCH   1   5
TORSDOF 1
