REMARK  2 active torsions:
REMARK  status: ('A' for Active; 'I' for Inactive)
REMARK    1  A    between atoms: C1_1  and  C4_4 
REMARK    2  A    between atoms: C4_4  and  C5_5 
ROOT
HETATM    1  C2  UNL     1     -33.633   5.738   1.264  1.00 20.00     0.020 A 
HETATM    2  C3  UNL     1     -32.483   5.265   2.100  1.00 20.00     0.020 A 
HETATM    3  C4  UNL     1     -33.250   6.504   2.513  1.00 20.00     0.039 A 
ENDROOT
BRANCH   3   4
HETATM    4  C1  UNL     1     -34.152   6.377   3.683  1.00 20.00     0.243 C 
HETATM    5  O6  UNL     1     -35.334   6.703   3.664  1.00 20.00    -0.306 OA
ENDBRANCH   3   4
BRANCH   3   6
HETATM    6  C5  UNL     1     -32.562   7.832   2.319  1.00 20.00     0.238 C 
HETATM    7  F7  UNL     1     -31.765   7.759   1.220  1.00 20.00    -0.254 F 
ENDBRANCH   3   6
TORSDOF 2
