REMARK  1 active torsions:
REMARK  status: ('A' for Active; 'I' for Inactive)
REMARK    1  A    between atoms: C6_6  and  C7_7 
ROOT
HETATM    1  C1  UNL     1     -34.124   7.973   4.816  1.00 20.00     0.005 C 
HETATM    2  C2  UNL     1     -32.889   8.021   3.911  1.00 20.00     0.011 C 
HETATM    3  C3  UNL     1     -34.860   7.626   2.509  1.00 20.00     0.015 C 
HETATM    4  C4  UNL     1     -34.091   5.930   3.469  1.00 20.00     0.015 C 
HETATM    5  C5  UNL     1     -35.023   7.082   3.963  1.00 20.00    -0.013 C 
HETATM    6  C6  UNL     1     -33.393   7.140   2.761  1.00 20.00    -0.031 C 
ENDROOT
BRANCH   6   7
HETATM    7  C7  UNL     1     -32.449   6.919   1.616  1.00 20.00     0.094 C 
HETATM    8 BR8  UNL     1     -32.020   8.617   0.762  1.00 20.00    -0.096 Br
ENDBRANCH   6   7
TORSDOF 1
