REMARK  1 active torsions:
REMARK  status: ('A' for Active; 'I' for Inactive)
REMARK    1  A    between atoms: C3_3  and  C4_4 
ROOT
HETATM    1  C1  UNL     1     -31.826   7.221   1.564  1.00 20.00     0.149 A 
HETATM    2  C2  UNL     1     -32.180   5.902   1.377  1.00 20.00     0.093 A 
HETATM    3  C3  UNL     1     -33.334   7.056   3.148  1.00 20.00     0.089 A 
HETATM    4  N5  UNL     1     -32.487   7.885   2.579  1.00 20.00    -0.255 NA
HETATM    5  S6  UNL     1     -33.386   5.462   2.513  1.00 20.00    -0.060 SA
HETATM    6 CL7  UNL     1     -31.585   4.780   0.235  1.00 20.00    -0.075 Cl
ENDROOT
BRANCH   3   7
HETATM    7  C4  UNL     1     -34.221   7.410   4.278  1.00 20.00     0.181 C 
HETATM    8 CL8  UNL     1     -35.500   6.188   4.495  1.00 20.00    -0.123 Cl
ENDBRANCH   3   7
TORSDOF 1
