REMARK  1 active torsions:
REMARK  status: ('A' for Active; 'I' for Inactive)
REMARK    1  A    between atoms: C2_2  and  C3_3 
ROOT
HETATM    1  C1  UNL     1     -32.752   7.619   2.511  1.00 20.00     0.018 C 
HETATM    2  C2  UNL     1     -33.430   6.509   2.830  1.00 20.00     0.188 C 
HETATM    3  C4  UNL     1     -31.684   7.677   1.468  1.00 20.00     0.039 C 
HETATM    4  F7  UNL     1     -33.146   5.356   2.179  1.00 20.00    -0.199 F 
ENDROOT
BRANCH   2   5
HETATM    5  C3  UNL     1     -34.523   6.488   3.910  1.00 20.00     0.238 C 
HETATM    6  O5  UNL     1     -34.722   7.608   4.467  1.00 20.00    -0.642 OA
HETATM    7  O6  UNL     1     -35.093   5.381   4.123  1.00 20.00    -0.642 OA
ENDBRANCH   2   5
TORSDOF 1
