REMARK  0 active torsions:
REMARK  status: ('A' for Active; 'I' for Inactive)
ROOT
HETATM    1  C1  UNL     1     -32.789   8.204   2.460  1.00 20.00     0.052 A 
HETATM    2  C2  UNL     1     -32.447   5.636   1.611  1.00 20.00     0.126 A 
HETATM    3  C3  UNL     1     -33.440   7.175   3.146  1.00 20.00    -0.047 A 
HETATM    4  C4  UNL     1     -33.283   5.854   2.704  1.00 20.00    -0.034 A 
HETATM    5  C5  UNL     1     -31.989   7.873   1.378  1.00 20.00     0.126 A 
HETATM    6  C6  UNL     1     -34.343   7.513   4.305  1.00 20.00     0.039 C 
HETATM    7  C7  UNL     1     -33.933   4.694   3.405  1.00 20.00     0.040 C 
HETATM    8  C8  UNL     1     -34.675   6.304   5.179  1.00 20.00     0.005 C 
HETATM    9  C9  UNL     1     -35.084   5.116   4.317  1.00 20.00     0.005 C 
HETATM   10  N10 UNL     1     -31.798   6.612   0.937  1.00 20.00    -0.248 NA
HETATM   11 CL11 UNL     1     -31.155   9.081   0.490  1.00 20.00    -0.062 Cl
ENDROOT
TORSDOF 0
