REMARK  2 active torsions:
REMARK  status: ('A' for Active; 'I' for Inactive)
REMARK    1  A    between atoms: C5_5  and  C6_6 
REMARK    2  A    between atoms: C6_6  and  C7_7 
ROOT
HETATM    1  C1  UNL     1     -32.682   5.575   2.341  1.00 20.00     0.012 C 
HETATM    2  C6  UNL     1     -33.656   6.728   2.650  1.00 20.00     0.002 C 
ENDROOT
BRANCH   2   3
HETATM    3  C5  UNL     1     -32.895   8.072   2.661  1.00 20.00     0.119 C 
HETATM    4 CL8  UNL     1     -32.076   8.399   1.106  1.00 20.00    -0.130 Cl
ENDBRANCH   2   3
BRANCH   2   5
HETATM    5  C7  UNL     1     -34.489   6.496   3.970  1.00 20.00    -0.047 C 
HETATM    6  C2  UNL     1     -35.997   6.399   3.643  1.00 20.00     0.015 C 
HETATM    7  C3  UNL     1     -34.316   7.687   4.940  1.00 20.00     0.015 C 
HETATM    8  C4  UNL     1     -34.073   5.210   4.708  1.00 20.00     0.015 C 
ENDBRANCH   2   5
TORSDOF 2
