REMARK  1 active torsions:
REMARK  status: ('A' for Active; 'I' for Inactive)
REMARK    1  A    between atoms: C3_3  and  C5_5 
ROOT
HETATM    1  C1  UNL     1     -31.405   7.525   1.399  1.00 20.00     0.055 A 
HETATM    2  C2  UNL     1     -31.233   8.551   0.570  1.00 20.00     0.085 A 
HETATM    3  C3  UNL     1     -32.723   7.642   2.077  1.00 20.00     0.273 A 
HETATM    4  C4  UNL     1     -32.419   9.429   0.623  1.00 20.00     0.378 A 
HETATM    5  O6  UNL     1     -33.347   8.820   1.532  1.00 20.00    -0.273 OA
HETATM    6  F7  UNL     1     -32.568   7.850   3.411  1.00 20.00    -0.202 F 
HETATM    7  F8  UNL     1     -32.132  10.672   1.077  1.00 20.00    -0.171 F 
HETATM    8  F9  UNL     1     -33.028   9.559  -0.580  1.00 20.00    -0.171 F 
ENDROOT
BRANCH   3   9
HETATM    9  C5  UNL     1     -33.630   6.445   1.867  1.00 20.00     0.337 C 
HETATM   10  F10 UNL     1     -32.991   5.549   1.071  1.00 20.00    -0.226 F 
HETATM   11 CL11 UNL     1     -34.021   5.676   3.414  1.00 20.00    -0.083 Cl
ENDBRANCH   3   9
TORSDOF 1
