REMARK  2 active torsions:
REMARK  status: ('A' for Active; 'I' for Inactive)
REMARK    1  A    between atoms: C2_2  and  C3_3 
REMARK    2  A    between atoms: C3_3  and  C7_7 
ROOT
HETATM    1  C3  UNL     1     -33.026   7.217   3.178  1.00 20.00     0.255 C 
HETATM    2  O8  UNL     1     -32.748   7.827   4.206  1.00 20.00    -0.283 OA
ENDROOT
BRANCH   1   3
HETATM    3  C2  UNL     1     -32.285   7.429   1.905  1.00 20.00     0.062 C 
HETATM    4  C1  UNL     1     -32.250   8.629   1.324  1.00 20.00    -0.076 C 
HETATM    5  C4  UNL     1     -31.601   9.150   0.061  1.00 20.00     0.034 C 
HETATM    6  C5  UNL     1     -32.837   9.974   1.691  1.00 20.00     0.034 C 
HETATM    7  C6  UNL     1     -32.614  10.306   0.200  1.00 20.00     0.009 C 
ENDBRANCH   1   3
BRANCH   1   8
HETATM    8  C7  UNL     1     -34.137   6.209   3.136  1.00 20.00     0.455 C 
HETATM    9  F9  UNL     1     -34.272   5.654   1.904  1.00 20.00    -0.163 F 
HETATM   10  F10 UNL     1     -33.931   5.189   4.007  1.00 20.00    -0.163 F 
HETATM   11  F11 UNL     1     -35.337   6.758   3.452  1.00 20.00    -0.163 F 
ENDBRANCH   1   8
TORSDOF 2
