REMARK  0 active torsions:
REMARK  status: ('A' for Active; 'I' for Inactive)
ROOT
HETATM    1  C1  UNL     1     -31.352   6.952   1.599  1.00 20.00     0.001 C 
HETATM    2  C2  UNL     1     -32.231   7.802   2.179  1.00 20.00     0.001 C 
HETATM    3  C3  UNL     1     -33.368   3.359   3.660  1.00 20.00     0.001 C 
HETATM    4  C4  UNL     1     -34.326   4.286   4.293  1.00 20.00     0.001 C 
HETATM    5  C5  UNL     1     -32.560   3.539   2.589  1.00 20.00     0.009 C 
HETATM    6  C6  UNL     1     -34.649   5.559   3.971  1.00 20.00     0.009 C 
HETATM    7  C7  UNL     1     -31.369   5.498   1.760  1.00 20.00     0.009 C 
HETATM    8  C8  UNL     1     -33.330   7.393   3.054  1.00 20.00     0.009 C 
HETATM    9  C9  UNL     1     -32.512   4.778   1.821  1.00 20.00    -0.039 C 
HETATM   10  C10 UNL     1     -34.061   6.275   2.844  1.00 20.00    -0.039 C 
HETATM   11  C11 UNL     1     -33.870   5.391   1.646  1.00 20.00     0.123 C 
HETATM   12 BR12 UNL     1     -34.162   6.260  -0.068  1.00 20.00    -0.081 Br
ENDROOT
TORSDOF 0
