REMARK  2 active torsions:
REMARK  status: ('A' for Active; 'I' for Inactive)
REMARK    1  A    between atoms: C3_3  and  O10_10 
REMARK    2  A    between atoms: C8_8  and  O10_10 
ROOT
HETATM    1  C1  UNL     1     -32.518   5.700   1.370  1.00 20.00     0.069 C 
HETATM    2  C2  UNL     1     -32.213   7.070   2.017  1.00 20.00     0.173 C 
HETATM    3  C3  UNL     1     -33.375   5.322   2.600  1.00 20.00     0.134 C 
HETATM    4  C4  UNL     1     -33.433   6.846   2.973  1.00 20.00     0.008 C 
HETATM    5  C5  UNL     1     -34.746   7.479   2.481  1.00 20.00     0.020 C 
HETATM    6  C6  UNL     1     -33.154   7.290   4.412  1.00 20.00     0.020 C 
HETATM    7  O9  UNL     1     -32.277   8.214   1.146  1.00 20.00    -0.234 OA
ENDROOT
BRANCH   3   8
HETATM    8  O10 UNL     1     -32.674   4.509   3.511  1.00 20.00    -0.385 OA
BRANCH   8   9
HETATM    9  C8  UNL     1     -33.569   3.815   4.359  1.00 20.00     0.163 C 
HETATM   10  C7  UNL     1     -32.773   2.956   5.319  1.00 20.00     0.033 C 
ENDBRANCH   8   9
ENDBRANCH   3   8
TORSDOF 2
