REMARK  1 active torsions:
REMARK  status: ('A' for Active; 'I' for Inactive)
REMARK    1  A    between atoms: C4_4  and  C10_10 
ROOT
HETATM    1  C1  UNL     1     -32.263   5.562   1.371  1.00 20.00    -0.004 C 
HETATM    2  C2  UNL     1     -33.269   5.653   2.398  1.00 20.00     0.003 C 
HETATM    3  C3  UNL     1     -31.623   6.649   0.922  1.00 20.00    -0.026 C 
HETATM    4  C4  UNL     1     -33.498   6.796   3.067  1.00 20.00    -0.072 C 
HETATM    5  C5  UNL     1     -31.897   8.022   1.461  1.00 20.00     0.031 C 
HETATM    6  C6  UNL     1     -32.717   8.054   2.765  1.00 20.00     0.038 C 
ENDROOT
BRANCH   4   7
HETATM    7  C10 UNL     1     -34.518   6.889   4.162  1.00 20.00    -0.028 C 
HETATM    8  C7  UNL     1     -35.561   7.956   3.794  1.00 20.00     0.019 C 
HETATM    9  C8  UNL     1     -33.832   7.278   5.481  1.00 20.00     0.019 C 
HETATM   10  C9  UNL     1     -35.217   5.531   4.340  1.00 20.00     0.019 C 
ENDBRANCH   4   7
TORSDOF 1
