REMARK  1 active torsions:
REMARK  status: ('A' for Active; 'I' for Inactive)
REMARK    1  A    between atoms: C4_4  and  C9_9 
ROOT
HETATM    1  C1  UNL     1     -34.955   4.733   4.434  1.00 20.00     0.017 C 
HETATM    2  C2  UNL     1     -34.372   5.657   3.937  1.00 20.00    -0.089 C 
HETATM    3  C3  UNL     1     -33.688   6.767   3.364  1.00 20.00     0.066 C 
HETATM    4  C4  UNL     1     -33.022   6.735   2.190  1.00 20.00    -0.068 C 
HETATM    5  C5  UNL     1     -32.936   5.464   1.364  1.00 20.00     0.044 C 
ENDROOT
BRANCH   4   6
HETATM    6  C9  UNL     1     -32.301   7.977   1.600  1.00 20.00    -0.028 C 
HETATM    7  C6  UNL     1     -31.633   7.624   0.253  1.00 20.00     0.019 C 
HETATM    8  C7  UNL     1     -33.239   9.179   1.328  1.00 20.00     0.019 C 
HETATM    9  C8  UNL     1     -31.216   8.465   2.583  1.00 20.00     0.019 C 
ENDBRANCH   4   6
TORSDOF 1
