REMARK  2 active torsions:
REMARK  status: ('A' for Active; 'I' for Inactive)
REMARK    1  A    between atoms: C3_3  and  C4_4 
REMARK    2  A    between atoms: C3_3  and  C5_5 
ROOT
HETATM    1  C3  UNL     1     -33.670   5.454   2.987  1.00 20.00     0.157 C 
ENDROOT
BRANCH   1   2
HETATM    2  C4  UNL     1     -34.613   6.538   3.501  1.00 20.00     0.245 C 
HETATM    3  C1  UNL     1     -35.613   6.014   4.510  1.00 20.00     0.090 C 
HETATM    4  F6  UNL     1     -35.291   7.089   2.463  1.00 20.00    -0.207 F 
HETATM    5  F7  UNL     1     -33.897   7.537   4.077  1.00 20.00    -0.207 F 
ENDBRANCH   1   2
BRANCH   1   6
HETATM    6  C5  UNL     1     -32.999   5.844   1.674  1.00 20.00     0.245 C 
HETATM    7  C2  UNL     1     -33.891   5.615   0.471  1.00 20.00     0.090 C 
HETATM    8  F8  UNL     1     -32.642   7.152   1.709  1.00 20.00    -0.207 F 
HETATM    9  F9  UNL     1     -31.857   5.129   1.511  1.00 20.00    -0.207 F 
ENDBRANCH   1   6
TORSDOF 2
