REMARK  2 active torsions:
REMARK  status: ('A' for Active; 'I' for Inactive)
REMARK    1  A    between atoms: C5_5  and  C6_6 
REMARK    2  A    between atoms: C6_6  and  C7_7 
ROOT
HETATM    1  C1  UNL     1     -33.145   7.594   3.380  1.00 20.00     0.031 C 
HETATM    2  C2  UNL     1     -32.825   5.550   1.961  1.00 20.00     0.031 C 
HETATM    3  C3  UNL     1     -34.460   6.980   3.844  1.00 20.00     0.168 C 
HETATM    4  C4  UNL     1     -34.159   5.050   2.504  1.00 20.00     0.168 C 
HETATM    5  C5  UNL     1     -32.770   7.082   1.985  1.00 20.00    -0.010 C 
HETATM    6  O8  UNL     1     -34.390   5.555   3.819  1.00 20.00    -0.391 OA
ENDROOT
BRANCH   5   7
HETATM    7  C6  UNL     1     -31.395   7.590   1.563  1.00 20.00     0.020 C 
BRANCH   7   8
HETATM    8  C7  UNL     1     -31.328   9.104   1.424  1.00 20.00     0.115 C 
HETATM    9 CL9  UNL     1     -32.492   9.719   0.228  1.00 20.00    -0.130 Cl
ENDBRANCH   7   8
ENDBRANCH   5   7
TORSDOF 2
