REMARK  1 active torsions:
REMARK  status: ('A' for Active; 'I' for Inactive)
REMARK    1  A    between atoms: C4_4  and  C8_8 
ROOT
HETATM    1  C5  UNL     1     -32.207   9.416   0.403  1.00 20.00     0.002 C 
HETATM    2  C6  UNL     1     -33.348   8.999   1.335  1.00 20.00     0.011 C 
HETATM    3  C7  UNL     1     -30.976   8.631   0.854  1.00 20.00     0.021 C 
HETATM    4  C8  UNL     1     -32.689   8.178   2.459  1.00 20.00     0.039 C 
HETATM    5  C9  UNL     1     -31.512   7.500   1.727  1.00 20.00     0.090 C 
HETATM    6 CL11 UNL     1     -32.039   6.130   0.699  1.00 20.00    -0.124 Cl
ENDROOT
BRANCH   4   7
HETATM    7  C4  UNL     1     -33.585   7.273   3.280  1.00 20.00    -0.028 A 
HETATM    8  C1  UNL     1     -34.281   7.611   4.465  1.00 20.00     0.034 A 
HETATM    9  C2  UNL     1     -34.958   6.477   4.847  1.00 20.00     0.142 A 
HETATM   10  O10 UNL     1     -34.723   5.463   3.973  1.00 20.00    -0.334 OA
HETATM   11  C3  UNL     1     -33.887   5.956   3.022  1.00 20.00     0.148 A 
ENDBRANCH   4   7
TORSDOF 1
