REMARK  1 active torsions:
REMARK  status: ('A' for Active; 'I' for Inactive)
REMARK    1  A    between atoms: C4_4  and  C8_8 
ROOT
HETATM    1  C5  UNL     1     -33.514   7.451   3.888  1.00 20.00     0.002 C 
HETATM    2  C6  UNL     1     -32.150   7.961   3.403  1.00 20.00     0.011 C 
HETATM    3  C7  UNL     1     -34.045   6.518   2.803  1.00 20.00     0.021 C 
HETATM    4  C8  UNL     1     -31.948   7.407   1.979  1.00 20.00     0.039 C 
HETATM    5  C9  UNL     1     -32.806   6.129   2.009  1.00 20.00     0.090 C 
HETATM    6 CL11 UNL     1     -33.209   5.439   0.428  1.00 20.00    -0.124 Cl
ENDROOT
BRANCH   4   7
HETATM    7  C4  UNL     1     -32.261   8.402   0.873  1.00 20.00    -0.028 A 
HETATM    8  C1  UNL     1     -32.705   9.737   1.029  1.00 20.00     0.034 A 
HETATM    9  C2  UNL     1     -32.854  10.241  -0.242  1.00 20.00     0.142 A 
HETATM   10  O10 UNL     1     -32.530   9.301  -1.169  1.00 20.00    -0.334 OA
HETATM   11  C3  UNL     1     -32.171   8.185  -0.482  1.00 20.00     0.148 A 
ENDBRANCH   4   7
TORSDOF 1
