REMARK  1 active torsions:
REMARK  status: ('A' for Active; 'I' for Inactive)
REMARK    1  A    between atoms: C4_4  and  C9_9 
ROOT
HETATM    1  C5  UNL     1     -33.059   7.104   2.622  1.00 20.00     0.135 C 
HETATM    2  C6  UNL     1     -33.647   5.720   2.512  1.00 20.00     0.079 C 
HETATM    3  C7  UNL     1     -32.862   5.135   1.344  1.00 20.00     0.008 C 
HETATM    4  C8  UNL     1     -32.567   6.329   0.446  1.00 20.00     0.017 C 
HETATM    5  C9  UNL     1     -32.197   7.452   1.425  1.00 20.00     0.090 C 
HETATM    6  O10 UNL     1     -33.265   7.852   3.571  1.00 20.00    -0.297 OA
ENDROOT
BRANCH   5   7
HETATM    7  C4  UNL     1     -32.419   8.837   0.878  1.00 20.00    -0.023 A 
HETATM    8  C1  UNL     1     -32.282   9.255  -0.467  1.00 20.00     0.034 A 
HETATM    9  C2  UNL     1     -32.585  10.597  -0.483  1.00 20.00     0.142 A 
HETATM   10  O11 UNL     1     -32.899  11.030   0.766  1.00 20.00    -0.334 OA
HETATM   11  C3  UNL     1     -32.796   9.954   1.589  1.00 20.00     0.149 A 
ENDBRANCH   5   7
TORSDOF 1
