REMARK  3 active torsions:
REMARK  status: ('A' for Active; 'I' for Inactive)
REMARK    1  A    between atoms: C5_5  and  C6_6 
REMARK    2  A    between atoms: C6_6  and  C7_7 
REMARK    3  A    between atoms: C7_7  and  C8_8 
ROOT
HETATM    1  C1  UNL     1     -34.381   7.033   3.841  1.00 20.00     0.004 C 
HETATM    2  C2  UNL     1     -34.369   5.509   3.868  1.00 20.00     0.026 C 
HETATM    3  C3  UNL     1     -33.071   7.569   3.271  1.00 20.00     0.032 C 
HETATM    4  C4  UNL     1     -33.977   4.950   2.507  1.00 20.00     0.168 C 
HETATM    5  C5  UNL     1     -32.752   6.902   1.932  1.00 20.00     0.121 C 
HETATM    6  O9  UNL     1     -32.720   5.478   2.085  1.00 20.00    -0.386 OA
ENDROOT
BRANCH   5   7
HETATM    7  C6  UNL     1     -31.393   7.345   1.408  1.00 20.00     0.033 C 
BRANCH   7   8
HETATM    8  C7  UNL     1     -31.330   8.861   1.231  1.00 20.00     0.017 C 
BRANCH   8   9
HETATM    9  C8  UNL     1     -32.361   9.335   0.216  1.00 20.00     0.115 C 
HETATM   10 CL10 UNL     1     -32.285  11.103   0.034  1.00 20.00    -0.130 Cl
ENDBRANCH   8   9
ENDBRANCH   7   8
ENDBRANCH   5   7
TORSDOF 3
