REMARK  1 active torsions:
REMARK  status: ('A' for Active; 'I' for Inactive)
REMARK    1  A    between atoms: C4_4  and  C9_9 
ROOT
HETATM    1  C5  UNL     1     -32.909   6.268   2.054  1.00 20.00     0.135 C 
HETATM    2  C6  UNL     1     -33.735   6.198   3.312  1.00 20.00     0.079 C 
HETATM    3  C7  UNL     1     -33.587   7.607   3.869  1.00 20.00     0.008 C 
HETATM    4  C8  UNL     1     -32.192   8.049   3.441  1.00 20.00     0.017 C 
HETATM    5  C9  UNL     1     -31.991   7.473   2.033  1.00 20.00     0.090 C 
HETATM    6  O10 UNL     1     -32.967   5.434   1.158  1.00 20.00    -0.297 OA
ENDROOT
BRANCH   5   7
HETATM    7  C4  UNL     1     -32.291   8.457   0.928  1.00 20.00    -0.023 A 
HETATM    8  C1  UNL     1     -32.256   8.211  -0.466  1.00 20.00     0.034 A 
HETATM    9  C2  UNL     1     -32.600   9.397  -1.072  1.00 20.00     0.142 A 
HETATM   10  O11 UNL     1     -32.844  10.356  -0.141  1.00 20.00    -0.334 OA
HETATM   11  C3  UNL     1     -32.654   9.776   1.073  1.00 20.00     0.149 A 
ENDBRANCH   5   7
TORSDOF 1
