REMARK  4 active torsions:
REMARK  status: ('A' for Active; 'I' for Inactive)
REMARK    1  A    between atoms: C1_1  and  C2_2 
REMARK    2  A    between atoms: C1_1  and  N9_9 
REMARK    3  A    between atoms: C7_7  and  C8_8 
REMARK    4  A    between atoms: C8_8  and  N9_9 
ROOT
HETATM    1  C4  UNL     1     -32.730   5.036   1.081  1.00 20.00     0.038 C 
HETATM    2  C5  UNL     1     -34.277   6.986   0.855  1.00 20.00     0.038 C 
HETATM    3  C8  UNL     1     -33.214   6.332   1.749  1.00 20.00     0.024 C 
ENDROOT
BRANCH   3   4
HETATM    4  C7  UNL     1     -31.998   7.266   1.961  1.00 20.00     0.026 C 
HETATM    5  C3  UNL     1     -32.320   8.604   2.619  1.00 20.00     0.007 C 
ENDBRANCH   3   4
BRANCH   3   6
HETATM    6  N9  UNL     1     -33.810   5.991   3.030  1.00 20.00    -0.383 N 
HETATM    7  C6  UNL     1     -34.864   6.877   3.511  1.00 20.00     0.150 C 
BRANCH   6   8
HETATM    8  C1  UNL     1     -33.262   5.038   3.843  1.00 20.00     0.127 C 
BRANCH   8   9
HETATM    9  C2  UNL     1     -33.661   3.766   4.015  1.00 20.00     0.275 C 
HETATM   10  O10 UNL     1     -33.214   2.837   4.737  1.00 20.00    -0.301 OA
ENDBRANCH   8   9
ENDBRANCH   6   8
ENDBRANCH   3   6
TORSDOF 4
