REMARK  1 active torsions:
REMARK  status: ('A' for Active; 'I' for Inactive)
REMARK    1  A    between atoms: C10_10  and  N11_11 
ROOT
HETATM    1  C1  UNL     1     -33.135  10.519   1.188  1.00 20.00     0.015 C 
HETATM    2  C2  UNL     1     -32.784   9.371   1.234  1.00 20.00    -0.076 C 
HETATM    3  C8  UNL     1     -32.127   7.434  -0.131  1.00 20.00     0.063 C 
HETATM    4  C9  UNL     1     -31.054   7.848   2.099  1.00 20.00     0.063 C 
HETATM    5  C10 UNL     1     -32.351   7.960   1.292  1.00 20.00     0.214 C 
ENDROOT
BRANCH   5   6
HETATM    6  N11 UNL     1     -33.394   7.168   1.945  1.00 20.00     0.110 N 
HETATM    7  C6  UNL     1     -33.629   7.660   3.311  1.00 20.00     0.282 C 
HETATM    8  C4  UNL     1     -34.776   6.912   3.983  1.00 20.00     0.108 C 
HETATM    9  C3  UNL     1     -34.551   5.421   3.906  1.00 20.00     0.130 C 
HETATM   10  C5  UNL     1     -34.129   4.885   2.559  1.00 20.00     0.108 C 
HETATM   11  O12 UNL     1     -34.805   4.676   4.850  1.00 20.00    -0.298 OA
HETATM   12  C7  UNL     1     -33.018   5.746   1.966  1.00 20.00     0.282 C 
ENDBRANCH   5   6
TORSDOF 1
