REMARK  3 active torsions:
REMARK  status: ('A' for Active; 'I' for Inactive)
REMARK    1  A    between atoms: C4_4  and  C8_8 
REMARK    2  A    between atoms: C8_8  and  N10_10 
REMARK    3  A    between atoms: C9_9  and  N10_10 
ROOT
HETATM    1  C1  UNL     1     -33.174   7.960   5.202  1.00 20.00     0.015 C 
HETATM    2  C2  UNL     1     -33.593   7.322   4.275  1.00 20.00    -0.076 C 
HETATM    3  C6  UNL     1     -33.410   5.172   3.095  1.00 20.00     0.063 C 
HETATM    4  C7  UNL     1     -35.621   6.342   3.282  1.00 20.00     0.063 C 
HETATM    5  C9  UNL     1     -34.109   6.536   3.136  1.00 20.00     0.212 C 
ENDROOT
BRANCH   5   6
HETATM    6  N10 UNL     1     -33.837   7.254   1.905  1.00 20.00     0.115 N 
HETATM    7  H23 UNL     1     -34.190   6.717   1.111  1.00 20.00     0.319 HD
BRANCH   6   8
HETATM    8  C8  UNL     1     -32.405   7.474   1.728  1.00 20.00     0.365 C 
BRANCH   8   9
HETATM    9  C4  UNL     1     -32.157   8.580   0.799  1.00 20.00    -0.077 C 
HETATM   10  C3  UNL     1     -31.948   9.486   0.039  1.00 20.00    -0.109 C 
HETATM   11  C5  UNL     1     -31.693  10.589  -0.887  1.00 20.00     0.112 C 
ENDBRANCH   8   9
ENDBRANCH   6   8
ENDBRANCH   5   6
TORSDOF 3
