REMARK  3 active torsions:
REMARK  status: ('A' for Active; 'I' for Inactive)
REMARK    1  A    between atoms: C2_2  and  C3_3 
REMARK    2  A    between atoms: C3_3  and  C11_11 
REMARK    3  A    between atoms: C11_11  and  C12_12 
ROOT
HETATM    1  C3  UNL     1     -32.208   8.152   2.306  1.00 20.00     0.159 C 
HETATM    2  O13 UNL     1     -31.283   8.587   2.989  1.00 20.00    -0.292 OA
ENDROOT
BRANCH   1   3
HETATM    3  C2  UNL     1     -33.242   7.327   2.935  1.00 20.00    -0.016 C 
HETATM    4  C1  UNL     1     -33.948   7.869   3.938  1.00 20.00    -0.016 C 
HETATM    5  C4  UNL     1     -35.040   7.124   4.651  1.00 20.00     0.028 C 
HETATM    6  C6  UNL     1     -35.468   5.840   3.934  1.00 20.00     0.004 C 
HETATM    7  C7  UNL     1     -34.262   5.069   3.405  1.00 20.00     0.005 C 
HETATM    8  C5  UNL     1     -33.436   5.925   2.440  1.00 20.00     0.042 C 
ENDBRANCH   1   3
BRANCH   1   9
HETATM    9  C11 UNL     1     -32.353   8.435   0.812  1.00 20.00     0.059 C 
HETATM   10  C8  UNL     1     -31.202   7.788   0.038  1.00 20.00     0.018 C 
BRANCH   9  11
HETATM   11  C12 UNL     1     -32.521   9.955   0.561  1.00 20.00    -0.012 C 
HETATM   12  C9  UNL     1     -32.636  10.323  -0.921  1.00 20.00     0.010 C 
HETATM   13  C10 UNL     1     -33.721  10.519   1.328  1.00 20.00     0.010 C 
ENDBRANCH   9  11
ENDBRANCH   1   9
TORSDOF 3
