REMARK  3 active torsions:
REMARK  status: ('A' for Active; 'I' for Inactive)
REMARK    1  A    between atoms: C7_7  and  C8_8 
REMARK    2  A    between atoms: C8_8  and  N11_11 
REMARK    3  A    between atoms: C9_9  and  N11_11 
ROOT
HETATM    1  C1  UNL     1     -33.584   7.962   5.385  1.00 20.00     0.015 C 
HETATM    2  C2  UNL     1     -34.054   7.313   4.489  1.00 20.00    -0.076 C 
HETATM    3  C5  UNL     1     -34.111   5.076   3.471  1.00 20.00     0.063 C 
HETATM    4  C6  UNL     1     -36.160   6.523   3.489  1.00 20.00     0.063 C 
HETATM    5  C9  UNL     1     -34.631   6.516   3.389  1.00 20.00     0.213 C 
ENDROOT
BRANCH   5   6
HETATM    6  N11 UNL     1     -34.234   7.100   2.123  1.00 20.00     0.122 N 
HETATM    7  H25 UNL     1     -34.629   6.555   1.354  1.00 20.00     0.319 HD
BRANCH   6   8
HETATM    8  C8  UNL     1     -32.782   7.126   1.986  1.00 20.00     0.327 C 
HETATM    9  C3  UNL     1     -32.280   5.813   1.556  1.00 20.00     0.095 C 
HETATM   10  N10 UNL     1     -31.883   4.776   1.221  1.00 20.00    -0.195 NA
BRANCH   8  11
HETATM   11  C7  UNL     1     -32.329   8.258   1.055  1.00 20.00     0.046 C 
HETATM   12  C4  UNL     1     -32.812   9.647   1.461  1.00 20.00     0.008 C 
ENDBRANCH   8  11
ENDBRANCH   6   8
ENDBRANCH   5   6
TORSDOF 3
