REMARK  3 active torsions:
REMARK  status: ('A' for Active; 'I' for Inactive)
REMARK    1  A    between atoms: C2_2  and  C6_6 
REMARK    2  A    between atoms: C2_2  and  C7_7 
REMARK    3  A    between atoms: C7_7  and  C8_8 
ROOT
HETATM    1  C1  UNL     1     -32.712   9.782   0.602  1.00 20.00     0.066 C 
HETATM    2  C6  UNL     1     -33.274   8.525   1.109  1.00 20.00     0.202 C 
HETATM    3  N9  UNL     1     -32.271  10.776   0.198  1.00 20.00    -0.197 NA
ENDROOT
BRANCH   2   4
HETATM    4  C2  UNL     1     -32.383   7.869   2.148  1.00 20.00     0.143 C 
HETATM    5  O10 UNL     1     -31.337   8.385   2.545  1.00 20.00    -0.297 OA
BRANCH   4   6
HETATM    6  C7  UNL     1     -32.874   6.532   2.708  1.00 20.00     0.055 C 
HETATM    7  C3  UNL     1     -32.907   5.537   1.548  1.00 20.00     0.018 C 
BRANCH   6   8
HETATM    8  C8  UNL     1     -34.238   6.697   3.423  1.00 20.00    -0.012 C 
HETATM    9  C4  UNL     1     -34.139   7.716   4.566  1.00 20.00     0.010 C 
HETATM   10  C5  UNL     1     -34.765   5.372   3.984  1.00 20.00     0.010 C 
ENDBRANCH   6   8
ENDBRANCH   4   6
ENDBRANCH   2   4
TORSDOF 3
