REMARK  3 active torsions:
REMARK  status: ('A' for Active; 'I' for Inactive)
REMARK    1  A    between atoms: C4_4  and  C6_6 
REMARK    2  A    between atoms: C6_6  and  C7_7 
REMARK    3  A    between atoms: C7_7  and  N8_8 
ROOT
HETATM    1  C1  UNL     1     -31.929   8.408   1.043  1.00 20.00     0.158 C 
HETATM    2  N8  UNL     1     -31.766   7.603   1.880  1.00 20.00    -0.271 NA
HETATM    3  S9  UNL     1     -32.134   9.524  -0.075  1.00 20.00    -0.055 SA
ENDROOT
BRANCH   2   4
HETATM    4  C7  UNL     1     -32.267   6.264   1.550  1.00 20.00     0.106 C 
HETATM    5  C5  UNL     1     -31.375   5.242   2.245  1.00 20.00     0.034 C 
BRANCH   4   6
HETATM    6  C6  UNL     1     -33.720   6.139   2.017  1.00 20.00     0.031 C 
BRANCH   6   7
HETATM    7  C4  UNL     1     -33.868   6.336   3.520  1.00 20.00    -0.013 A 
HETATM    8  C2  UNL     1     -34.102   7.710   4.084  1.00 20.00     0.005 A 
HETATM    9  C3  UNL     1     -35.205   6.689   4.109  1.00 20.00     0.005 A 
ENDBRANCH   6   7
ENDBRANCH   4   6
ENDBRANCH   2   4
TORSDOF 3
