REMARK  2 active torsions:
REMARK  status: ('A' for Active; 'I' for Inactive)
REMARK    1  A    between atoms: C4_4  and  C5_5 
REMARK    2  A    between atoms: C5_5  and  N6_6 
ROOT
HETATM    1  C1  UNL     1     -35.279   5.490   4.311  1.00 20.00     0.012 C 
HETATM    2  C2  UNL     1     -34.499   6.338   3.974  1.00 20.00    -0.116 C 
HETATM    3  C4  UNL     1     -33.546   7.381   3.566  1.00 20.00     0.115 C 
ENDROOT
BRANCH   3   4
HETATM    4  C5  UNL     1     -32.763   6.979   2.322  1.00 20.00     0.162 C 
BRANCH   4   5
HETATM    5  N6  UNL     1     -31.809   8.036   1.974  1.00 20.00    -0.275 NA
HETATM    6  C3  UNL     1     -32.211   8.830   1.208  1.00 20.00     0.157 C 
HETATM    7  S7  UNL     1     -32.729   9.921   0.171  1.00 20.00    -0.055 SA
ENDBRANCH   4   5
ENDBRANCH   3   4
TORSDOF 2
