REMARK  1 active torsions:
REMARK  status: ('A' for Active; 'I' for Inactive)
REMARK    1  A    between atoms: C7_7  and  N9_9 
ROOT
HETATM    1  C1  UNL     1     -32.329   9.116   0.460  1.00 20.00     0.089 C 
HETATM    2  C7  UNL     1     -31.824   8.009   1.270  1.00 20.00     0.396 C 
HETATM    3  N8  UNL     1     -32.726   9.995  -0.184  1.00 20.00    -0.195 NA
ENDROOT
BRANCH   2   4
HETATM    4  N9  UNL     1     -32.822   7.583   2.250  1.00 20.00     0.107 N 
HETATM    5  C2  UNL     1     -32.807   8.498   3.406  1.00 20.00     0.284 C 
HETATM    6  C3  UNL     1     -33.357   7.948   4.724  1.00 20.00     0.104 C 
HETATM    7  S10 UNL     1     -34.806   6.898   4.473  1.00 20.00    -0.165 SA
HETATM    8  C4  UNL     1     -34.087   5.732   3.271  1.00 20.00     0.109 C 
HETATM    9  C5  UNL     1     -32.743   6.167   2.647  1.00 20.00     0.229 C 
HETATM   10  C6  UNL     1     -32.435   5.199   1.492  1.00 20.00     0.043 C 
ENDBRANCH   2   4
TORSDOF 1
