REMARK  2 active torsions:
REMARK  status: ('A' for Active; 'I' for Inactive)
REMARK    1  A    between atoms: C6_6  and  C8_8 
REMARK    2  A    between atoms: C7_7  and  O11_11 
ROOT
HETATM    1  C3  UNL     1     -32.169   8.476   0.991  1.00 20.00     0.058 C 
HETATM    2  C4  UNL     1     -33.986   9.015   2.618  1.00 20.00     0.069 C 
HETATM    3  C5  UNL     1     -31.703   7.396   1.951  1.00 20.00     0.171 C 
HETATM    4  C7  UNL     1     -32.878   9.595   1.743  1.00 20.00     0.123 C 
HETATM    5  C8  UNL     1     -33.491   7.864   3.517  1.00 20.00     0.063 C 
HETATM    6  C9  UNL     1     -32.605   8.378   4.665  1.00 20.00     0.046 C 
HETATM    7  O10 UNL     1     -32.782   6.890   2.734  1.00 20.00    -0.380 OA
ENDROOT
BRANCH   5   8
HETATM    8  C6  UNL     1     -34.689   7.150   4.114  1.00 20.00     0.020 A 
HETATM    9  C1  UNL     1     -35.388   6.066   3.340  1.00 20.00     0.008 A 
HETATM   10  C2  UNL     1     -34.574   5.717   4.555  1.00 20.00     0.008 A 
ENDBRANCH   5   8
BRANCH   4  11
HETATM   11  O11 UNL     1     -33.453  10.512   0.819  1.00 20.00    -0.395 OA
HETATM   12  H27 UNL     1     -33.889  11.201   1.345  1.00 20.00     0.210 HD
ENDBRANCH   4  11
TORSDOF 2
