REMARK  0 active torsions:
REMARK  status: ('A' for Active; 'I' for Inactive)
ROOT
HETATM    1  C1  UNL     1     -32.403   9.045   0.926  1.00 20.00     0.085 C 
HETATM    2  C2  UNL     1     -32.073   6.714   1.661  1.00 20.00     0.067 C 
HETATM    3  C3  UNL     1     -33.966   8.089   2.586  1.00 20.00     0.078 C 
HETATM    4  C4  UNL     1     -32.399   5.678   2.728  1.00 20.00     0.171 C 
HETATM    5  C5  UNL     1     -32.517   8.123   2.071  1.00 20.00     0.130 C 
HETATM    6  C6  UNL     1     -34.308   6.915   3.535  1.00 20.00     0.056 C 
HETATM    7  C7  UNL     1     -35.838   6.742   3.562  1.00 20.00     0.045 C 
HETATM    8  C8  UNL     1     -33.849   7.141   4.983  1.00 20.00     0.045 C 
HETATM    9  N9  UNL     1     -32.314   9.771   0.025  1.00 20.00    -0.195 NA
HETATM   10  O10 UNL     1     -33.791   5.677   3.030  1.00 20.00    -0.381 OA
HETATM   11 CL11 UNL     1     -31.407   8.784   3.318  1.00 20.00    -0.103 Cl
ENDROOT
TORSDOF 0
