REMARK  1 active torsions:
REMARK  status: ('A' for Active; 'I' for Inactive)
REMARK    1  A    between atoms: C5_5  and  C8_8 
ROOT
HETATM    1  C1  UNL     1     -32.382   7.715   1.770  1.00 20.00     0.046 C 
HETATM    2  C2  UNL     1     -34.010   5.838   2.144  1.00 20.00     0.057 C 
HETATM    3  C3  UNL     1     -32.424   7.958   3.270  1.00 20.00     0.170 C 
HETATM    4  C4  UNL     1     -32.737   6.275   1.417  1.00 20.00     0.087 C 
HETATM    5  C5  UNL     1     -34.108   6.259   3.633  1.00 20.00     0.058 C 
HETATM    6  C6  UNL     1     -35.569   6.195   4.055  1.00 20.00     0.046 C 
HETATM    7  O9  UNL     1     -33.699   7.623   3.808  1.00 20.00    -0.380 OA
HETATM    8 CL10 UNL     1     -31.370   5.178   1.768  1.00 20.00    -0.125 Cl
ENDROOT
BRANCH   5   9
HETATM    9  C8  UNL     1     -33.307   5.340   4.571  1.00 20.00     0.033 C 
HETATM   10  C7  UNL     1     -33.789   3.932   4.495  1.00 20.00     0.008 C 
ENDBRANCH   5   9
TORSDOF 1
