REMARK  1 active torsions:
REMARK  status: ('A' for Active; 'I' for Inactive)
REMARK    1  A    between atoms: C5_5  and  C9_9 
ROOT
HETATM    1  C1  UNL     1     -31.418   6.338   1.349  1.00 20.00     0.046 C 
HETATM    2  C2  UNL     1     -32.465   7.797   3.108  1.00 20.00     0.058 C 
HETATM    3  C3  UNL     1     -32.735   5.581   1.291  1.00 20.00     0.170 C 
HETATM    4  C4  UNL     1     -31.605   7.769   1.842  1.00 20.00     0.087 C 
HETATM    5  C5  UNL     1     -33.709   6.872   3.092  1.00 20.00     0.061 C 
HETATM    6  C6  UNL     1     -34.897   7.476   2.323  1.00 20.00     0.046 C 
HETATM    7  O10 UNL     1     -33.382   5.580   2.560  1.00 20.00    -0.380 OA
HETATM    8 CL11 UNL     1     -32.296   8.800   0.556  1.00 20.00    -0.125 Cl
ENDROOT
BRANCH   5   9
HETATM    9  C9  UNL     1     -34.154   6.641   4.528  1.00 20.00     0.012 C 
HETATM   10  C7  UNL     1     -34.478   7.970   5.201  1.00 20.00     0.012 C 
HETATM   11  C8  UNL     1     -35.357   5.706   4.564  1.00 20.00     0.012 C 
ENDBRANCH   5   9
TORSDOF 1
