REMARK  1 active torsions:
REMARK  status: ('A' for Active; 'I' for Inactive)
REMARK    1  A    between atoms: C4_4  and  S9_9 
ROOT
HETATM    1  C1  UNL     1     -32.105   6.977   0.428  1.00 20.00     0.041 C 
HETATM    2  C2  UNL     1     -33.552   8.393   1.903  1.00 20.00     0.052 C 
HETATM    3  C3  UNL     1     -32.003   5.984   1.579  1.00 20.00     0.170 C 
HETATM    4  C4  UNL     1     -32.343   8.387   0.965  1.00 20.00     0.049 C 
HETATM    5  C5  UNL     1     -33.437   7.314   3.000  1.00 20.00     0.054 C 
HETATM    6  C6  UNL     1     -34.793   7.166   3.704  1.00 20.00     0.045 C 
HETATM    7  C7  UNL     1     -32.383   7.672   4.058  1.00 20.00     0.045 C 
HETATM    8  O8  UNL     1     -33.157   6.033   2.415  1.00 20.00    -0.381 OA
ENDROOT
BRANCH   4   9
HETATM    9  S9  UNL     1     -32.609   9.552  -0.413  1.00 20.00    -0.177 SA
HETATM   10  H23 UNL     1     -32.778  10.634   0.358  1.00 20.00     0.102 HD
ENDBRANCH   4   9
TORSDOF 1
