REMARK  1 active torsions:
REMARK  status: ('A' for Active; 'I' for Inactive)
REMARK    1  A    between atoms: C4_4  and  S9_9 
ROOT
HETATM    1  C1  UNL     1     -34.172   5.775   1.925  1.00 20.00     0.041 C 
HETATM    2  C2  UNL     1     -33.193   7.743   3.132  1.00 20.00     0.052 C 
HETATM    3  C3  UNL     1     -32.860   5.576   1.169  1.00 20.00     0.170 C 
HETATM    4  C4  UNL     1     -33.918   6.402   3.289  1.00 20.00     0.049 C 
HETATM    5  C5  UNL     1     -32.095   7.701   2.040  1.00 20.00     0.054 C 
HETATM    6  C6  UNL     1     -30.795   8.304   2.592  1.00 20.00     0.045 C 
HETATM    7  C7  UNL     1     -32.501   8.503   0.793  1.00 20.00     0.045 C 
HETATM    8  O8  UNL     1     -31.779   6.348   1.688  1.00 20.00    -0.381 OA
ENDROOT
BRANCH   4   9
HETATM    9  S9  UNL     1     -35.482   6.626   4.198  1.00 20.00    -0.177 SA
HETATM   10  H23 UNL     1     -34.925   7.167   5.289  1.00 20.00     0.102 HD
ENDBRANCH   4   9
TORSDOF 1
