REMARK  0 active torsions:
REMARK  status: ('A' for Active; 'I' for Inactive)
ROOT
HETATM    1  C1  UNL     1     -33.616   5.706   2.136  1.00 20.00     0.046 C 
HETATM    2  C2  UNL     1     -33.002   7.751   3.443  1.00 20.00     0.057 C 
HETATM    3  C3  UNL     1     -32.679   6.194   1.039  1.00 20.00     0.170 C 
HETATM    4  C4  UNL     1     -34.155   6.886   2.936  1.00 20.00     0.087 C 
HETATM    5  C5  UNL     1     -32.039   8.151   2.307  1.00 20.00     0.055 C 
HETATM    6  C6  UNL     1     -30.760   8.743   2.917  1.00 20.00     0.045 C 
HETATM    7  C7  UNL     1     -32.654   9.200   1.368  1.00 20.00     0.045 C 
HETATM    8  O8  UNL     1     -31.623   6.990   1.571  1.00 20.00    -0.381 OA
HETATM    9 CL9  UNL     1     -35.138   6.302   4.308  1.00 20.00    -0.125 Cl
ENDROOT
TORSDOF 0
