REMARK  0 active torsions:
REMARK  status: ('A' for Active; 'I' for Inactive)
ROOT
HETATM    1  C1  UNL     1     -33.443   3.424   4.615  1.00 20.00     0.088 C 
HETATM    2  C2  UNL     1     -34.493   5.514   4.039  1.00 20.00    -0.065 C 
HETATM    3  C3  UNL     1     -34.590   4.236   4.430  1.00 20.00     0.096 C 
HETATM    4  C4  UNL     1     -35.684   6.406   3.832  1.00 20.00     0.061 C 
HETATM    5  C5  UNL     1     -33.181   6.189   3.742  1.00 20.00     0.072 C 
HETATM    6  C6  UNL     1     -35.619   7.026   2.441  1.00 20.00     0.173 C 
HETATM    7  C7  UNL     1     -33.209   6.851   2.349  1.00 20.00     0.057 C 
HETATM    8  C8  UNL     1     -33.150   5.818   1.212  1.00 20.00     0.046 C 
HETATM    9  C9  UNL     1     -32.000   7.788   2.213  1.00 20.00     0.046 C 
HETATM   10  N10 UNL     1     -32.508   2.753   4.768  1.00 20.00    -0.192 NA
HETATM   11  O11 UNL     1     -34.373   7.691   2.220  1.00 20.00    -0.380 OA
ENDROOT
TORSDOF 0
