REMARK  0 active torsions:
REMARK  status: ('A' for Active; 'I' for Inactive)
ROOT
HETATM    1  C1  UNL     1     -33.311   5.831   2.388  1.00 20.00     0.046 C 
HETATM    2  C2  UNL     1     -33.429   8.320   2.143  1.00 20.00     0.057 C 
HETATM    3  C3  UNL     1     -32.036   5.866   1.556  1.00 20.00     0.170 C 
HETATM    4  C4  UNL     1     -33.498   7.152   3.126  1.00 20.00     0.087 C 
HETATM    5  C5  UNL     1     -32.159   8.264   1.271  1.00 20.00     0.055 C 
HETATM    6  C6  UNL     1     -32.298   9.266   0.115  1.00 20.00     0.045 C 
HETATM    7  C7  UNL     1     -30.894   8.619   2.066  1.00 20.00     0.045 C 
HETATM    8  O8  UNL     1     -32.029   6.972   0.657  1.00 20.00    -0.381 OA
HETATM    9 CL9  UNL     1     -35.064   7.160   3.984  1.00 20.00    -0.125 Cl
ENDROOT
TORSDOF 0
