REMARK  0 active torsions:
REMARK  status: ('A' for Active; 'I' for Inactive)
ROOT
HETATM    1  C1  UNL     1     -35.256   6.240   3.783  1.00 20.00     0.000 C 
HETATM    2  C2  UNL     1     -34.332   5.038   3.916  1.00 20.00     0.000 C 
HETATM    3  C3  UNL     1     -34.594   7.596   3.992  1.00 20.00     0.003 C 
HETATM    4  C4  UNL     1     -33.574   4.733   2.628  1.00 20.00     0.003 C 
HETATM    5  C5  UNL     1     -33.146   7.768   3.532  1.00 20.00     0.038 C 
HETATM    6  C6  UNL     1     -32.417   5.678   2.312  1.00 20.00     0.038 C 
HETATM    7  C7  UNL     1     -32.557   8.202  -0.630  1.00 20.00     0.046 C 
HETATM    8  C8  UNL     1     -31.495   7.929   1.621  1.00 20.00     0.058 C 
HETATM    9  C9  UNL     1     -33.578   7.190  -0.116  1.00 20.00     0.170 C 
HETATM   10  C10 UNL     1     -31.793   8.910   0.486  1.00 20.00     0.087 C 
HETATM   11  C11 UNL     1     -32.760   7.182   2.151  1.00 20.00     0.062 C 
HETATM   12  O12 UNL     1     -33.870   7.372   1.263  1.00 20.00    -0.380 OA
HETATM   13 CL13 UNL     1     -32.725  10.321   1.075  1.00 20.00    -0.125 Cl
ENDROOT
TORSDOF 0
