REMARK  3 active torsions:
REMARK  status: ('A' for Active; 'I' for Inactive)
REMARK    1  A    between atoms: C4_4  and  N8_8 
REMARK    2  A    between atoms: C6_6  and  C7_7 
REMARK    3  A    between atoms: C6_6  and  N8_8 
ROOT
HETATM    1  C1  UNL     1     -33.696   5.385   3.195  1.00 20.00     0.064 C 
HETATM    2  C2  UNL     1     -34.833   5.772   4.113  1.00 20.00     0.170 C 
HETATM    3  C3  UNL     1     -33.673   7.711   3.547  1.00 20.00     0.203 C 
HETATM    4  C4  UNL     1     -33.439   6.679   2.459  1.00 20.00     0.248 C 
HETATM    5  O9  UNL     1     -34.629   7.149   4.458  1.00 20.00    -0.389 OA
ENDROOT
BRANCH   4   6
HETATM    6  N8  UNL     1     -32.131   6.754   1.879  1.00 20.00     0.092 N 
HETATM    7  C5  UNL     1     -31.753   5.464   1.303  1.00 20.00     0.310 C 
BRANCH   6   8
HETATM    8  C6  UNL     1     -32.083   7.802   0.860  1.00 20.00     0.287 C 
BRANCH   8   9
HETATM    9  C7  UNL     1     -32.004   9.196   1.461  1.00 20.00     0.144 C 
HETATM   10 CL10 UNL     1     -31.954  10.446   0.193  1.00 20.00    -0.129 Cl
ENDBRANCH   8   9
ENDBRANCH   6   8
ENDBRANCH   4   6
TORSDOF 3
