REMARK  2 active torsions:
REMARK  status: ('A' for Active; 'I' for Inactive)
REMARK    1  A    between atoms: C4_4  and  O10_10 
REMARK    2  A    between atoms: C5_5  and  C8_8 
ROOT
HETATM    1  C1  UNL     1     -33.813   5.960   2.783  1.00 20.00     0.058 C 
HETATM    2  C2  UNL     1     -33.005   8.188   3.571  1.00 20.00     0.069 C 
HETATM    3  C3  UNL     1     -33.149   6.251   1.448  1.00 20.00     0.171 C 
HETATM    4  C4  UNL     1     -34.209   7.255   3.481  1.00 20.00     0.123 C 
HETATM    5  C5  UNL     1     -32.307   8.391   2.211  1.00 20.00     0.059 C 
HETATM    6  C6  UNL     1     -30.967   9.065   2.436  1.00 20.00     0.046 C 
HETATM    7  O9  UNL     1     -32.030   7.121   1.600  1.00 20.00    -0.380 OA
ENDROOT
BRANCH   5   8
HETATM    8  C8  UNL     1     -33.145   9.270   1.266  1.00 20.00     0.033 C 
HETATM    9  C7  UNL     1     -32.464   9.461  -0.046  1.00 20.00     0.008 C 
ENDBRANCH   5   8
BRANCH   4  10
HETATM   10  O10 UNL     1     -34.675   6.975   4.796  1.00 20.00    -0.395 OA
HETATM   11  H26 UNL     1     -34.913   7.827   5.195  1.00 20.00     0.210 HD
ENDBRANCH   4  10
TORSDOF 2
