REMARK  2 active torsions:
REMARK  status: ('A' for Active; 'I' for Inactive)
REMARK    1  A    between atoms: C5_5  and  C8_8 
REMARK    2  A    between atoms: C8_8  and  C9_9 
ROOT
HETATM    1  C1  UNL     1     -34.412   5.277   4.748  1.00 20.00     0.046 C 
HETATM    2  C2  UNL     1     -32.547   4.853   3.133  1.00 20.00     0.057 C 
HETATM    3  C3  UNL     1     -34.894   6.379   3.816  1.00 20.00     0.170 C 
HETATM    4  C4  UNL     1     -33.658   4.210   3.962  1.00 20.00     0.087 C 
HETATM    5  C5  UNL     1     -33.073   6.015   2.267  1.00 20.00     0.058 C 
HETATM    6  C6  UNL     1     -33.920   5.520   1.085  1.00 20.00     0.046 C 
HETATM    7  O10 UNL     1     -33.816   6.943   3.072  1.00 20.00    -0.380 OA
HETATM    8 CL11 UNL     1     -32.971   2.995   5.076  1.00 20.00    -0.125 Cl
ENDROOT
BRANCH   5   9
HETATM    9  C8  UNL     1     -31.881   6.804   1.707  1.00 20.00     0.037 C 
BRANCH   9  10
HETATM   10  C9  UNL     1     -32.316   8.186   1.238  1.00 20.00    -0.002 C 
HETATM   11  C7  UNL     1     -31.132   8.977   0.706  1.00 20.00     0.005 C 
ENDBRANCH   9  10
ENDBRANCH   5   9
TORSDOF 2
