REMARK  2 active torsions:
REMARK  status: ('A' for Active; 'I' for Inactive)
REMARK    1  A    between atoms: C5_5  and  C8_8 
REMARK    2  A    between atoms: C5_5  and  C9_9 
ROOT
HETATM    1  C1  UNL     1     -35.069   4.854   4.355  1.00 20.00     0.046 C 
HETATM    2  C2  UNL     1     -32.699   5.012   3.563  1.00 20.00     0.058 C 
HETATM    3  C3  UNL     1     -35.399   6.011   3.423  1.00 20.00     0.170 C 
HETATM    4  C4  UNL     1     -33.874   4.070   3.824  1.00 20.00     0.087 C 
HETATM    5  C5  UNL     1     -33.106   6.209   2.680  1.00 20.00     0.061 C 
HETATM    6  O10 UNL     1     -34.269   6.857   3.219  1.00 20.00    -0.380 OA
HETATM    7 CL11 UNL     1     -33.401   2.804   4.991  1.00 20.00    -0.125 Cl
ENDROOT
BRANCH   5   8
HETATM    8  C8  UNL     1     -31.988   7.260   2.711  1.00 20.00     0.033 C 
HETATM    9  C6  UNL     1     -32.330   8.443   1.870  1.00 20.00     0.008 C 
ENDBRANCH   5   8
BRANCH   5  10
HETATM   10  C9  UNL     1     -33.340   5.798   1.219  1.00 20.00     0.033 C 
HETATM   11  C7  UNL     1     -32.110   5.208   0.617  1.00 20.00     0.008 C 
ENDBRANCH   5  10
TORSDOF 2
