REMARK  1 active torsions:
REMARK  status: ('A' for Active; 'I' for Inactive)
REMARK    1  A    between atoms: C6_6  and  C7_7 
ROOT
HETATM    1  C3  UNL     1     -33.083   5.613   2.231  1.00 20.00     0.046 C 
HETATM    2  C4  UNL     1     -33.140   7.982   3.042  1.00 20.00     0.052 C 
HETATM    3  C5  UNL     1     -32.192   6.083   1.090  1.00 20.00     0.169 C 
HETATM    4  C7  UNL     1     -32.179   8.351   1.907  1.00 20.00     0.126 C 
HETATM    5  C8  UNL     1     -33.981   6.753   2.699  1.00 20.00     0.086 C 
HETATM    6  O9  UNL     1     -31.417   7.220   1.466  1.00 20.00    -0.385 OA
HETATM    7 CL10 UNL     1     -34.935   6.243   4.119  1.00 20.00    -0.125 Cl
ENDROOT
BRANCH   4   8
HETATM    8  C6  UNL     1     -32.851   9.044   0.753  1.00 20.00     0.015 A 
HETATM    9  C1  UNL     1     -33.207  10.502   0.847  1.00 20.00     0.007 A 
HETATM   10  C2  UNL     1     -32.097  10.056  -0.064  1.00 20.00     0.007 A 
ENDBRANCH   4   8
TORSDOF 1
