REMARK  2 active torsions:
REMARK  status: ('A' for Active; 'I' for Inactive)
REMARK    1  A    between atoms: C5_5  and  C8_8 
REMARK    2  A    between atoms: C5_5  and  O10_10 
ROOT
HETATM    1  C1  UNL     1     -33.132   5.834   2.187  1.00 20.00     0.064 C 
HETATM    2  C2  UNL     1     -33.871   8.238   2.304  1.00 20.00     0.069 C 
HETATM    3  C3  UNL     1     -31.811   6.268   1.543  1.00 20.00     0.171 C 
HETATM    4  C4  UNL     1     -32.912   8.327   1.104  1.00 20.00     0.120 C 
HETATM    5  C5  UNL     1     -33.699   6.928   3.094  1.00 20.00     0.062 C 
HETATM    6  C6  UNL     1     -32.623   9.773   0.729  1.00 20.00     0.039 C 
HETATM    7  O9  UNL     1     -31.678   7.685   1.417  1.00 20.00    -0.386 OA
ENDROOT
BRANCH   5   8
HETATM    8  C8  UNL     1     -35.016   6.499   3.738  1.00 20.00     0.033 C 
HETATM    9  C7  UNL     1     -34.843   5.276   4.574  1.00 20.00     0.008 C 
ENDBRANCH   5   8
BRANCH   5  10
HETATM   10  O10 UNL     1     -32.760   7.174   4.148  1.00 20.00    -0.390 OA
HETATM   11  H26 UNL     1     -33.148   7.867   4.701  1.00 20.00     0.210 HD
ENDBRANCH   5  10
TORSDOF 2
