REMARK  1 active torsions:
REMARK  status: ('A' for Active; 'I' for Inactive)
REMARK    1  A    between atoms: C6_6  and  C8_8 
ROOT
HETATM    1  C3  UNL     1     -33.338   5.305   2.376  1.00 20.00     0.046 C 
HETATM    2  C4  UNL     1     -33.093   7.701   3.055  1.00 20.00     0.058 C 
HETATM    3  C5  UNL     1     -32.440   5.607   1.185  1.00 20.00     0.170 C 
HETATM    4  C7  UNL     1     -34.082   6.564   2.804  1.00 20.00     0.087 C 
HETATM    5  C8  UNL     1     -32.134   7.911   1.865  1.00 20.00     0.062 C 
HETATM    6  C9  UNL     1     -30.969   8.808   2.319  1.00 20.00     0.046 C 
HETATM    7  O10 UNL     1     -31.530   6.667   1.468  1.00 20.00    -0.380 OA
HETATM    8 CL11 UNL     1     -35.039   6.242   4.277  1.00 20.00    -0.125 Cl
ENDROOT
BRANCH   5   9
HETATM    9  C6  UNL     1     -32.818   8.574   0.688  1.00 20.00     0.020 A 
HETATM   10  C1  UNL     1     -32.401   9.949   0.244  1.00 20.00     0.008 A 
HETATM   11  C2  UNL     1     -32.082   8.755  -0.611  1.00 20.00     0.008 A 
ENDBRANCH   5   9
TORSDOF 1
