REMARK  0 active torsions:
REMARK  status: ('A' for Active; 'I' for Inactive)
ROOT
HETATM    1  C1  UNL     1     -32.279   9.792   0.346  1.00 20.00     0.088 C 
HETATM    2  C2  UNL     1     -32.170   7.583   1.299  1.00 20.00    -0.066 C 
HETATM    3  C3  UNL     1     -31.933   8.419   0.280  1.00 20.00     0.096 C 
HETATM    4  C4  UNL     1     -31.815   6.121   1.262  1.00 20.00     0.061 C 
HETATM    5  C5  UNL     1     -32.847   8.011   2.574  1.00 20.00     0.066 C 
HETATM    6  C6  UNL     1     -33.040   5.292   1.639  1.00 20.00     0.172 C 
HETATM    7  C7  UNL     1     -34.021   7.070   2.869  1.00 20.00     0.121 C 
HETATM    8  C8  UNL     1     -34.645   7.384   4.221  1.00 20.00     0.040 C 
HETATM    9  N9  UNL     1     -32.561  10.917   0.394  1.00 20.00    -0.192 NA
HETATM   10  O10 UNL     1     -33.566   5.708   2.904  1.00 20.00    -0.386 OA
ENDROOT
TORSDOF 0
