REMARK  0 active torsions:
REMARK  status: ('A' for Active; 'I' for Inactive)
ROOT
HETATM    1  C1  UNL     1     -33.203   7.797   3.500  1.00 20.00     0.066 C 
HETATM    2  C2  UNL     1     -33.393   5.483   2.489  1.00 20.00     0.071 C 
HETATM    3  C3  UNL     1     -32.637   8.249   2.159  1.00 20.00     0.171 C 
HETATM    4  C4  UNL     1     -35.141   6.233   4.274  1.00 20.00     0.207 A 
HETATM    5  C5  UNL     1     -32.816   6.084   1.202  1.00 20.00     0.120 C 
HETATM    6  C6  UNL     1     -34.034   6.564   3.307  1.00 20.00     0.086 A 
HETATM    7  C7  UNL     1     -32.012   5.050   0.426  1.00 20.00     0.039 C 
HETATM    8  O8  UNL     1     -31.938   7.175   1.521  1.00 20.00    -0.386 OA
HETATM    9  O9  UNL     1     -35.408   6.817   2.989  1.00 20.00    -0.375 OA
ENDROOT
TORSDOF 0
