REMARK  3 active torsions:
REMARK  status: ('A' for Active; 'I' for Inactive)
REMARK    1  A    between atoms: C1_1  and  C7_7 
REMARK    2  A    between atoms: C1_1  and  C9_9 
REMARK    3  A    between atoms: C8_8  and  C9_9 
ROOT
HETATM    1  C1  UNL     1     -32.395   7.673   2.341  1.00 20.00     0.141 C 
HETATM    2  O10 UNL     1     -31.391   7.279   1.750  1.00 20.00    -0.297 OA
ENDROOT
BRANCH   1   3
HETATM    3  C7  UNL     1     -32.994   6.878   3.447  1.00 20.00     0.116 C 
HETATM    4  C3  UNL     1     -33.525   5.516   3.007  1.00 20.00     0.024 C 
HETATM    5  C2  UNL     1     -34.521   5.084   4.074  1.00 20.00     0.012 C 
HETATM    6  C6  UNL     1     -35.478   6.248   4.265  1.00 20.00     0.075 C 
HETATM    7  S11 UNL     1     -34.445   7.734   4.134  1.00 20.00    -0.157 SA
ENDBRANCH   1   3
BRANCH   1   8
HETATM    8  C9  UNL     1     -33.093   8.976   2.000  1.00 20.00     0.084 C 
BRANCH   8   9
HETATM    9  C8  UNL     1     -32.400   9.736   0.884  1.00 20.00    -0.007 A 
HETATM   10  C4  UNL     1     -32.779   9.489  -0.550  1.00 20.00     0.005 A 
HETATM   11  C5  UNL     1     -33.143  10.789   0.110  1.00 20.00     0.005 A 
ENDBRANCH   8   9
ENDBRANCH   1   8
TORSDOF 3
