REMARK  1 active torsions:
REMARK  status: ('A' for Active; 'I' for Inactive)
REMARK    1  A    between atoms: C4_4  and  C5_5 
ROOT
HETATM    1  C1  UNL     1     -32.976   6.679   1.883  1.00 20.00     0.016 C 
HETATM    2  C2  UNL     1     -33.826   6.178   3.038  1.00 20.00     0.074 C 
HETATM    3  C3  UNL     1     -33.034   8.741   3.183  1.00 20.00     0.079 C 
HETATM    4  C4  UNL     1     -33.231   8.182   1.777  1.00 20.00     0.009 C 
HETATM    5  S6  UNL     1     -33.727   7.483   4.294  1.00 20.00    -0.169 SA
ENDROOT
BRANCH   4   6
HETATM    6  C5  UNL     1     -32.308   8.848   0.766  1.00 20.00     0.120 C 
HETATM    7 CL7  UNL     1     -32.651  10.586   0.673  1.00 20.00    -0.130 Cl
ENDBRANCH   4   6
TORSDOF 1
