REMARK  3 active torsions:
REMARK  status: ('A' for Active; 'I' for Inactive)
REMARK    1  A    between atoms: C1_1  and  C7_7 
REMARK    2  A    between atoms: C1_1  and  C9_9 
REMARK    3  A    between atoms: C8_8  and  C9_9 
ROOT
HETATM    1  C1  UNL     1     -32.852   7.477   2.978  1.00 20.00     0.141 C 
HETATM    2  O10 UNL     1     -32.952   8.160   3.997  1.00 20.00    -0.297 OA
ENDROOT
BRANCH   1   3
HETATM    3  C7  UNL     1     -33.550   6.166   2.860  1.00 20.00     0.116 C 
HETATM    4  C3  UNL     1     -32.739   5.019   3.445  1.00 20.00     0.024 C 
HETATM    5  C2  UNL     1     -33.736   3.944   3.849  1.00 20.00     0.012 C 
HETATM    6  C6  UNL     1     -34.805   4.636   4.676  1.00 20.00     0.075 C 
HETATM    7  S11 UNL     1     -35.069   6.231   3.853  1.00 20.00    -0.157 SA
ENDBRANCH   1   3
BRANCH   1   8
HETATM    8  C9  UNL     1     -32.025   7.904   1.779  1.00 20.00     0.084 C 
BRANCH   8   9
HETATM    9  C8  UNL     1     -32.832   8.688   0.761  1.00 20.00    -0.007 A 
HETATM   10  C4  UNL     1     -32.933  10.184   0.864  1.00 20.00     0.005 A 
HETATM   11  C5  UNL     1     -32.137   9.559  -0.248  1.00 20.00     0.005 A 
ENDBRANCH   8   9
ENDBRANCH   1   8
TORSDOF 3
