REMARK  1 active torsions:
REMARK  status: ('A' for Active; 'I' for Inactive)
REMARK    1  A    between atoms: C4_4  and  C5_5 
ROOT
HETATM    1  C1  UNL     1     -32.496   5.305   1.735  1.00 20.00     0.016 C 
HETATM    2  C2  UNL     1     -31.909   6.184   0.644  1.00 20.00     0.074 C 
HETATM    3  C3  UNL     1     -32.935   7.470   2.767  1.00 20.00     0.079 C 
HETATM    4  C4  UNL     1     -33.582   6.131   2.424  1.00 20.00     0.005 C 
HETATM    5  S6  UNL     1     -31.847   7.847   1.365  1.00 20.00    -0.169 SA
ENDROOT
BRANCH   4   6
HETATM    6  C5  UNL     1     -34.131   5.443   3.639  1.00 20.00     0.090 C 
HETATM    7 BR7  UNL     1     -35.840   6.228   4.104  1.00 20.00    -0.096 Br
ENDBRANCH   4   6
TORSDOF 1
