REMARK  0 active torsions:
REMARK  status: ('A' for Active; 'I' for Inactive)
ROOT
HETATM    1  C1  UNL     1     -32.168   8.606   3.700  1.00 20.00     0.066 C 
HETATM    2  C2  UNL     1     -33.441   6.616   2.804  1.00 20.00     0.071 C 
HETATM    3  C3  UNL     1     -33.424   8.957   4.492  1.00 20.00     0.171 C 
HETATM    4  C4  UNL     1     -32.500   8.379   1.115  1.00 20.00     0.207 A 
HETATM    5  C5  UNL     1     -34.630   7.089   3.650  1.00 20.00     0.120 C 
HETATM    6  C6  UNL     1     -32.560   7.792   2.504  1.00 20.00     0.086 A 
HETATM    7  C7  UNL     1     -35.479   5.912   4.108  1.00 20.00     0.039 C 
HETATM    8  O8  UNL     1     -34.155   7.771   4.823  1.00 20.00    -0.386 OA
HETATM    9  O9  UNL     1     -31.478   7.502   1.610  1.00 20.00    -0.375 OA
ENDROOT
TORSDOF 0
