REMARK  2 active torsions:
REMARK  status: ('A' for Active; 'I' for Inactive)
REMARK    1  A    between atoms: C3_3  and  C7_7 
REMARK    2  A    between atoms: C3_3  and  C10_10 
ROOT
HETATM    1  C1  UNL     1     -32.314   9.658  -0.397  1.00 20.00     0.012 C 
HETATM    2  C2  UNL     1     -32.178   8.976   0.582  1.00 20.00    -0.110 C 
HETATM    3  C10 UNL     1     -32.008   8.150   1.782  1.00 20.00     0.171 C 
ENDROOT
BRANCH   3   4
HETATM    4  C3  UNL     1     -32.339   6.692   1.536  1.00 20.00     0.144 C 
HETATM    5  O11 UNL     1     -31.732   5.992   0.727  1.00 20.00    -0.297 OA
BRANCH   4   6
HETATM    6  C7  UNL     1     -33.467   6.128   2.344  1.00 20.00     0.087 C 
HETATM    7  C6  UNL     1     -34.748   6.944   2.140  1.00 20.00     0.046 C 
HETATM    8  C8  UNL     1     -35.048   7.420   3.562  1.00 20.00     0.122 C 
HETATM    9  C4  UNL     1     -35.505   6.257   4.442  1.00 20.00     0.034 C 
HETATM   10  O12 UNL     1     -33.713   7.648   4.068  1.00 20.00    -0.380 OA
HETATM   11  C5  UNL     1     -34.201   5.485   4.657  1.00 20.00     0.035 C 
HETATM   12  C9  UNL     1     -33.205   6.309   3.842  1.00 20.00     0.133 C 
ENDBRANCH   4   6
ENDBRANCH   3   4
TORSDOF 2
