REMARK  0 active torsions:
REMARK  status: ('A' for Active; 'I' for Inactive)
ROOT
HETATM    1  C1  UNL     1     -31.943   5.694   1.410  1.00 20.00     0.087 C 
HETATM    2  C2  UNL     1     -33.349   8.520   3.576  1.00 20.00     0.029 C 
HETATM    3  C3  UNL     1     -32.343   7.754   2.720  1.00 20.00     0.045 C 
HETATM    4  C4  UNL     1     -34.104   7.569   4.495  1.00 20.00     0.167 C 
HETATM    5  C5  UNL     1     -33.797   5.719   3.042  1.00 20.00     0.208 C 
HETATM    6  C6  UNL     1     -32.976   6.533   2.036  1.00 20.00     0.146 C 
HETATM    7  N7  UNL     1     -31.128   5.033   0.916  1.00 20.00    -0.195 NA
HETATM    8  O8  UNL     1     -34.737   6.536   3.743  1.00 20.00    -0.388 OA
HETATM    9 CL9  UNL     1     -34.056   7.078   0.703  1.00 20.00    -0.101 Cl
ENDROOT
TORSDOF 0
