REMARK  1 active torsions:
REMARK  status: ('A' for Active; 'I' for Inactive)
REMARK    1  A    between atoms: C4_4  and  C6_6 
ROOT
HETATM    1  C1  UNL     1     -31.556   7.382   1.021  1.00 20.00     0.135 A 
HETATM    2  C2  UNL     1     -32.201   8.134   1.978  1.00 20.00     0.136 A 
HETATM    3  C3  UNL     1     -32.849   5.577   1.567  1.00 20.00     0.144 A 
HETATM    4  C4  UNL     1     -33.493   6.329   2.525  1.00 20.00     0.069 A 
HETATM    5  N7  UNL     1     -31.869   6.090   0.798  1.00 20.00    -0.270 NA
HETATM    6  N8  UNL     1     -33.181   7.621   2.748  1.00 20.00    -0.261 NA
ENDROOT
BRANCH   4   7
HETATM    7  C6  UNL     1     -34.572   5.728   3.357  1.00 20.00     0.131 C 
HETATM    8  C5  UNL     1     -35.182   6.681   4.394  1.00 20.00     0.033 C 
HETATM    9 CL9  UNL     1     -33.967   4.259   4.195  1.00 20.00    -0.119 Cl
ENDBRANCH   4   7
TORSDOF 1
