REMARK  4 active torsions:
REMARK  status: ('A' for Active; 'I' for Inactive)
REMARK    1  A    between atoms: C5_5  and  C7_7 
REMARK    2  A    between atoms: C5_5  and  S9_9 
REMARK    3  A    between atoms: C6_6  and  C7_7 
REMARK    4  A    between atoms: C8_8  and  S9_9 
ROOT
HETATM    1  C5  UNL     1     -32.911   8.009   2.894  1.00 20.00     0.080 C 
ENDROOT
BRANCH   1   2
HETATM    2  C7  UNL     1     -33.585   6.922   3.752  1.00 20.00     0.004 C 
HETATM    3  C1  UNL     1     -35.086   7.222   3.865  1.00 20.00     0.012 C 
BRANCH   2   4
HETATM    4  C6  UNL     1     -33.343   5.479   3.273  1.00 20.00     0.119 C 
HETATM    5 CL10 UNL     1     -34.055   4.244   4.339  1.00 20.00    -0.130 Cl
ENDBRANCH   2   4
ENDBRANCH   1   2
BRANCH   1   6
HETATM    6  S9  UNL     1     -33.623   8.160   1.228  1.00 20.00    -0.160 SA
BRANCH   6   7
HETATM    7  C8  UNL     1     -32.568   9.492   0.614  1.00 20.00    -0.003 C 
HETATM    8  C2  UNL     1     -31.111   9.023   0.655  1.00 20.00     0.026 C 
HETATM    9  C3  UNL     1     -32.983   9.812  -0.825  1.00 20.00     0.026 C 
HETATM   10  C4  UNL     1     -32.759  10.721   1.508  1.00 20.00     0.026 C 
ENDBRANCH   6   7
ENDBRANCH   1   6
TORSDOF 4
