REMARK  0 active torsions:
REMARK  status: ('A' for Active; 'I' for Inactive)
ROOT
HETATM    1  C1  UNL     1     -32.454   9.366   0.308  1.00 20.00     0.087 C 
HETATM    2  C2  UNL     1     -33.464   6.939   3.091  1.00 20.00     0.029 C 
HETATM    3  C3  UNL     1     -33.484   8.202   2.231  1.00 20.00     0.045 C 
HETATM    4  C4  UNL     1     -33.245   5.706   2.227  1.00 20.00     0.167 C 
HETATM    5  C5  UNL     1     -32.105   6.931   0.544  1.00 20.00     0.208 C 
HETATM    6  C6  UNL     1     -32.287   8.268   1.273  1.00 20.00     0.146 C 
HETATM    7  N7  UNL     1     -32.586  10.231  -0.453  1.00 20.00    -0.195 NA
HETATM    8  O8  UNL     1     -32.050   5.834   1.459  1.00 20.00    -0.388 OA
HETATM    9 CL9  UNL     1     -30.789   8.638   2.199  1.00 20.00    -0.101 Cl
ENDROOT
TORSDOF 0
