REMARK  0 active torsions:
REMARK  status: ('A' for Active; 'I' for Inactive)
ROOT
HETATM    1  C1  UNL     1     -32.608   9.796   0.987  1.00 20.00     0.088 C 
HETATM    2  C2  UNL     1     -32.927   8.196   2.758  1.00 20.00    -0.046 C 
HETATM    3  C3  UNL     1     -33.056   9.443   2.284  1.00 20.00     0.098 C 
HETATM    4  C4  UNL     1     -33.394   7.795   4.131  1.00 20.00     0.039 C 
HETATM    5  C5  UNL     1     -32.331   7.076   1.952  1.00 20.00     0.202 C 
HETATM    6  C6  UNL     1     -34.244   6.528   4.039  1.00 20.00     0.030 C 
HETATM    7  C7  UNL     1     -33.546   5.460   3.202  1.00 20.00     0.168 C 
HETATM    8  N8  UNL     1     -32.244  10.092  -0.075  1.00 20.00    -0.192 NA
HETATM    9  O9  UNL     1     -33.236   5.968   1.902  1.00 20.00    -0.387 OA
ENDROOT
TORSDOF 0
