REMARK  4 active torsions:
REMARK  status: ('A' for Active; 'I' for Inactive)
REMARK    1  A    between atoms: C5_5  and  C7_7 
REMARK    2  A    between atoms: C5_5  and  O9_9 
REMARK    3  A    between atoms: C6_6  and  C7_7 
REMARK    4  A    between atoms: C8_8  and  O9_9 
ROOT
HETATM    1  C5  UNL     1     -32.488   7.438   1.953  1.00 20.00     0.174 C 
ENDROOT
BRANCH   1   2
HETATM    2  C7  UNL     1     -33.452   6.479   2.664  1.00 20.00     0.019 C 
HETATM    3  C1  UNL     1     -34.088   7.164   3.875  1.00 20.00     0.013 C 
BRANCH   2   4
HETATM    4  C6  UNL     1     -32.799   5.136   3.029  1.00 20.00     0.121 C 
HETATM    5 CL10 UNL     1     -33.941   3.948   3.704  1.00 20.00    -0.130 Cl
ENDBRANCH   2   4
ENDBRANCH   1   2
BRANCH   1   6
HETATM    6  O9  UNL     1     -33.195   8.335   1.107  1.00 20.00    -0.381 OA
BRANCH   6   7
HETATM    7  C8  UNL     1     -32.421   9.488   0.806  1.00 20.00     0.050 C 
HETATM    8  C2  UNL     1     -30.944   9.099   0.819  1.00 20.00     0.045 C 
HETATM    9  C3  UNL     1     -32.837   9.972  -0.582  1.00 20.00     0.045 C 
HETATM   10  C4  UNL     1     -32.713  10.558   1.857  1.00 20.00     0.045 C 
ENDBRANCH   6   7
ENDBRANCH   1   6
TORSDOF 4
