REMARK  4 active torsions:
REMARK  status: ('A' for Active; 'I' for Inactive)
REMARK    1  A    between atoms: C4_4  and  C6_6 
REMARK    2  A    between atoms: C4_4  and  O8_8 
REMARK    3  A    between atoms: C5_5  and  C6_6 
REMARK    4  A    between atoms: C7_7  and  O8_8 
ROOT
HETATM    1  C4  UNL     1     -33.177   7.860   1.795  1.00 20.00     0.173 C 
ENDROOT
BRANCH   1   2
HETATM    2  C6  UNL     1     -33.057   6.484   2.463  1.00 20.00     0.019 C 
HETATM    3  C1  UNL     1     -32.785   5.405   1.413  1.00 20.00     0.013 C 
BRANCH   2   4
HETATM    4  C5  UNL     1     -34.263   6.142   3.352  1.00 20.00     0.121 C 
HETATM    5 CL9  UNL     1     -34.615   7.380   4.582  1.00 20.00    -0.130 Cl
ENDBRANCH   2   4
ENDBRANCH   1   2
BRANCH   1   6
HETATM    6  O8  UNL     1     -31.974   8.205   1.120  1.00 20.00    -0.386 OA
BRANCH   6   7
HETATM    7  C7  UNL     1     -32.194   9.212   0.143  1.00 20.00     0.113 C 
HETATM    8  C2  UNL     1     -32.772   8.575  -1.112  1.00 20.00     0.039 C 
HETATM    9  C3  UNL     1     -33.120  10.273   0.717  1.00 20.00     0.039 C 
ENDBRANCH   6   7
ENDBRANCH   1   6
TORSDOF 4
