REMARK  1 active torsions:
REMARK  status: ('A' for Active; 'I' for Inactive)
REMARK    1  A    between atoms: C1_1  and  C5_5 
ROOT
HETATM    1  C2  UNL     1     -34.145   6.967   3.634  1.00 20.00     0.022 C 
HETATM    2  C3  UNL     1     -35.191   6.176   4.399  1.00 20.00     0.075 C 
HETATM    3  C4  UNL     1     -33.372   4.725   3.057  1.00 20.00     0.085 C 
HETATM    4  C5  UNL     1     -33.706   6.089   2.469  1.00 20.00     0.057 C 
HETATM    5  S7  UNL     1     -34.593   4.464   4.375  1.00 20.00    -0.168 SA
ENDROOT
BRANCH   4   6
HETATM    6  C1  UNL     1     -32.508   6.665   1.783  1.00 20.00     0.236 C 
HETATM    7  O6  UNL     1     -31.985   7.724   2.112  1.00 20.00    -0.306 OA
ENDBRANCH   4   6
TORSDOF 1
