REMARK  1 active torsions:
REMARK  status: ('A' for Active; 'I' for Inactive)
REMARK    1  A    between atoms: C1_1  and  C5_5 
ROOT
HETATM    1  C2  UNL     1     -32.905   5.222   1.949  1.00 20.00     0.022 C 
HETATM    2  C3  UNL     1     -31.566   5.630   1.360  1.00 20.00     0.075 C 
HETATM    3  C4  UNL     1     -32.931   7.567   2.627  1.00 20.00     0.085 C 
HETATM    4  C5  UNL     1     -33.158   6.149   3.132  1.00 20.00     0.057 C 
HETATM    5  S7  UNL     1     -31.540   7.440   1.469  1.00 20.00    -0.168 SA
ENDROOT
BRANCH   4   6
HETATM    6  C1  UNL     1     -34.555   5.977   3.639  1.00 20.00     0.236 C 
HETATM    7  O6  UNL     1     -35.203   6.881   4.154  1.00 20.00    -0.306 OA
ENDBRANCH   4   6
TORSDOF 1
