REMARK  3 active torsions:
REMARK  status: ('A' for Active; 'I' for Inactive)
REMARK    1  A    between atoms: C2_2  and  C5_5 
REMARK    2  A    between atoms: C5_5  and  N7_7 
REMARK    3  A    between atoms: C6_6  and  N7_7 
ROOT
HETATM    1  C1  UNL     1     -33.529   7.243   4.866  1.00 20.00     0.052 A 
HETATM    2  C2  UNL     1     -33.361   7.804   3.481  1.00 20.00     0.055 A 
HETATM    3  C3  UNL     1     -34.087   6.493   3.682  1.00 20.00     0.119 A 
HETATM    4 CL8  UNL     1     -33.327   4.973   3.233  1.00 20.00    -0.101 Cl
HETATM    5 CL9  UNL     1     -35.838   6.486   3.465  1.00 20.00    -0.101 Cl
ENDROOT
BRANCH   2   6
HETATM    6  C5  UNL     1     -32.002   7.890   2.873  1.00 20.00     0.277 C 
BRANCH   6   7
HETATM    7  N7  UNL     1     -32.080   7.991   1.442  1.00 20.00     0.083 N 
HETATM    8  H20 UNL     1     -31.187   7.719   1.017  1.00 20.00     0.315 HD
BRANCH   7   9
HETATM    9  C6  UNL     1     -32.396   9.355   1.013  1.00 20.00     0.265 C 
HETATM   10  C4  UNL     1     -32.512   9.439  -0.471  1.00 20.00     0.037 C 
ENDBRANCH   7   9
ENDBRANCH   6   7
ENDBRANCH   2   6
TORSDOF 3
