REMARK  3 active torsions:
REMARK  status: ('A' for Active; 'I' for Inactive)
REMARK    1  A    between atoms: C2_2  and  C5_5 
REMARK    2  A    between atoms: C5_5  and  N7_7 
REMARK    3  A    between atoms: C6_6  and  N7_7 
ROOT
HETATM    1  C1  UNL     1     -32.911   5.641   2.844  1.00 20.00     0.052 A 
HETATM    2  C2  UNL     1     -32.985   6.839   1.938  1.00 20.00     0.055 A 
HETATM    3  C3  UNL     1     -33.745   6.833   3.244  1.00 20.00     0.119 A 
HETATM    4 CL8  UNL     1     -35.500   6.670   3.168  1.00 20.00    -0.101 Cl
HETATM    5 CL9  UNL     1     -33.198   7.807   4.602  1.00 20.00    -0.101 Cl
ENDROOT
BRANCH   2   6
HETATM    6  C5  UNL     1     -31.772   7.677   1.713  1.00 20.00     0.277 C 
BRANCH   6   7
HETATM    7  N7  UNL     1     -32.126   8.978   1.216  1.00 20.00     0.083 N 
HETATM    8  H20 UNL     1     -31.359   9.640   1.377  1.00 20.00     0.315 HD
BRANCH   7   9
HETATM    9  C6  UNL     1     -32.417   8.949  -0.218  1.00 20.00     0.265 C 
HETATM   10  C4  UNL     1     -32.821  10.297  -0.712  1.00 20.00     0.037 C 
ENDBRANCH   7   9
ENDBRANCH   6   7
ENDBRANCH   2   6
TORSDOF 3
