REMARK  3 active torsions:
REMARK  status: ('A' for Active; 'I' for Inactive)
REMARK    1  A    between atoms: C1_1  and  C3_3 
REMARK       I    between atoms: C1_1  and  N9_9 
REMARK    2  A    between atoms: C7_7  and  C8_8 
REMARK    3  A    between atoms: C8_8  and  N9_9 
ROOT
HETATM    1  C1  UNL     1     -32.537   7.285   1.934  1.00 20.00     0.222 C 
HETATM    2  N9  UNL     1     -32.312   7.346   0.572  1.00 20.00    -0.361 N 
HETATM    3  O10 UNL     1     -32.059   8.027   2.785  1.00 20.00    -0.273 OA
HETATM    4  H25 UNL     1     -32.773   6.667  -0.025  1.00 20.00     0.162 HD
ENDROOT
BRANCH   1   5
HETATM    5  C3  UNL     1     -33.446   6.208   2.342  1.00 20.00     0.082 A 
HETATM    6  C2  UNL     1     -34.391   6.437   3.491  1.00 20.00     0.019 A 
HETATM    7  C4  UNL     1     -33.215   5.514   3.669  1.00 20.00    -0.005 A 
HETATM    8  C5  UNL     1     -33.426   4.044   3.791  1.00 20.00     0.011 C 
ENDBRANCH   1   5
BRANCH   2   9
HETATM    9  C8  UNL     1     -31.451   8.331  -0.043  1.00 20.00     0.122 C 
BRANCH   9  10
HETATM   10  C7  UNL     1     -32.204   9.597  -0.433  1.00 20.00     0.015 C 
HETATM   11  C6  UNL     1     -32.835  10.298   0.762  1.00 20.00     0.006 C 
ENDBRANCH   9  10
ENDBRANCH   2   9
TORSDOF 3
