REMARK  4 active torsions:
REMARK  status: ('A' for Active; 'I' for Inactive)
REMARK    1  A    between atoms: C1_1  and  C7_7 
REMARK    2  A    between atoms: C1_1  and  O10_10 
REMARK    3  A    between atoms: C4_4  and  C7_7 
REMARK    4  A    between atoms: C8_8  and  O10_10 
ROOT
HETATM    1  C1  UNL     1     -32.762   7.061   2.150  1.00 20.00     0.259 C 
HETATM    2  O9  UNL     1     -32.634   6.174   1.317  1.00 20.00    -0.265 OA
ENDROOT
BRANCH   1   3
HETATM    3  C7  UNL     1     -32.297   8.489   1.981  1.00 20.00     0.115 C 
BRANCH   3   4
HETATM    4  C4  UNL     1     -32.308   8.924   0.526  1.00 20.00    -0.005 A 
HETATM    5  C2  UNL     1     -33.540   9.548  -0.069  1.00 20.00     0.005 A 
HETATM    6  C3  UNL     1     -32.315  10.386   0.174  1.00 20.00     0.005 A 
ENDBRANCH   3   4
ENDBRANCH   1   3
BRANCH   1   7
HETATM    7  O10 UNL     1     -33.343   6.928   3.380  1.00 20.00    -0.317 OA
BRANCH   7   8
HETATM    8  C8  UNL     1     -34.379   5.945   3.468  1.00 20.00     0.123 C 
HETATM    9  C5  UNL     1     -33.763   4.600   3.820  1.00 20.00     0.040 C 
HETATM   10  C6  UNL     1     -35.402   6.388   4.503  1.00 20.00     0.040 C 
ENDBRANCH   7   8
ENDBRANCH   1   7
TORSDOF 4
