REMARK  1 active torsions:
REMARK  status: ('A' for Active; 'I' for Inactive)
REMARK       I    between atoms: C1_1  and  N9_9 
REMARK    1  A    between atoms: C6_6  and  N9_9 
ROOT
HETATM    1  C2  UNL     1     -32.495   9.738   0.172  1.00 20.00     0.002 C 
HETATM    2  C3  UNL     1     -31.581   8.791  -0.605  1.00 20.00     0.002 C 
HETATM    3  C4  UNL     1     -33.137   8.901   1.274  1.00 20.00     0.031 C 
HETATM    4  C5  UNL     1     -31.715   7.426   0.065  1.00 20.00     0.031 C 
HETATM    5  C6  UNL     1     -32.176   7.727   1.496  1.00 20.00     0.029 C 
HETATM    6  C8  UNL     1     -31.003   8.117   2.401  1.00 20.00     0.038 C 
ENDROOT
BRANCH   5   7
HETATM    7  N9  UNL     1     -32.864   6.593   2.070  1.00 20.00    -0.353 N 
HETATM    8  C1  UNL     1     -33.511   6.646   3.286  1.00 20.00     0.214 C 
HETATM    9  C7  UNL     1     -34.155   5.359   3.682  1.00 20.00     0.117 C 
HETATM   10  O10 UNL     1     -33.597   7.618   4.027  1.00 20.00    -0.274 OA
HETATM   11  H25 UNL     1     -32.871   5.720   1.556  1.00 20.00     0.163 HD
ENDBRANCH   5   7
TORSDOF 1
