REMARK  2 active torsions:
REMARK  status: ('A' for Active; 'I' for Inactive)
REMARK    1  A    between atoms: C1_1  and  C3_3 
REMARK       I    between atoms: C1_1  and  N9_9 
REMARK    2  A    between atoms: C8_8  and  N9_9 
ROOT
HETATM    1  C1  UNL     1     -33.260   6.034   1.779  1.00 20.00     0.222 C 
HETATM    2  N9  UNL     1     -33.153   7.411   1.785  1.00 20.00    -0.357 N 
HETATM    3  O10 UNL     1     -32.432   5.241   1.347  1.00 20.00    -0.273 OA
HETATM    4  H25 UNL     1     -33.917   7.954   2.175  1.00 20.00     0.162 HD
ENDROOT
BRANCH   1   5
HETATM    5  C3  UNL     1     -34.509   5.529   2.360  1.00 20.00     0.082 A 
HETATM    6  C2  UNL     1     -34.909   5.967   3.747  1.00 20.00     0.019 A 
HETATM    7  C4  UNL     1     -34.492   4.544   3.505  1.00 20.00    -0.005 A 
HETATM    8  C5  UNL     1     -33.221   4.030   4.090  1.00 20.00     0.011 C 
ENDBRANCH   1   5
BRANCH   2   9
HETATM    9  C8  UNL     1     -32.004   8.116   1.262  1.00 20.00     0.076 C 
HETATM   10  C6  UNL     1     -30.976   8.284   2.371  1.00 20.00     0.032 C 
HETATM   11  C7  UNL     1     -32.460   9.459   0.709  1.00 20.00     0.032 C 
ENDBRANCH   2   9
TORSDOF 2
