REMARK  3 active torsions:
REMARK  status: ('A' for Active; 'I' for Inactive)
REMARK    1  A    between atoms: C1_1  and  C7_7 
REMARK       I    between atoms: C1_1  and  N9_9 
REMARK    2  A    between atoms: C4_4  and  C8_8 
REMARK    3  A    between atoms: C8_8  and  N9_9 
ROOT
HETATM    1  C1  UNL     1     -33.379   6.569   2.582  1.00 20.00     0.219 C 
HETATM    2  C6  UNL     1     -31.554   6.377   0.879  1.00 20.00     0.152 C 
HETATM    3  N9  UNL     1     -32.336   7.139   1.844  1.00 20.00    -0.356 N 
HETATM    4  O10 UNL     1     -33.719   5.387   2.476  1.00 20.00    -0.273 OA
ENDROOT
BRANCH   3   5
HETATM    5  C8  UNL     1     -31.951   8.541   1.987  1.00 20.00     0.130 C 
BRANCH   5   6
HETATM    6  C4  UNL     1     -32.708   9.406   1.037  1.00 20.00     0.004 A 
HETATM    7  C2  UNL     1     -32.195  10.774   0.684  1.00 20.00     0.007 A 
HETATM    8  C3  UNL     1     -32.165   9.674  -0.339  1.00 20.00     0.007 A 
ENDBRANCH   5   6
ENDBRANCH   3   5
BRANCH   1   9
HETATM    9  C7  UNL     1     -34.102   7.495   3.549  1.00 20.00     0.098 C 
HETATM   10  C5  UNL     1     -35.228   6.800   4.296  1.00 20.00     0.014 C 
ENDBRANCH   1   9
TORSDOF 3
