REMARK  4 active torsions:
REMARK  status: ('A' for Active; 'I' for Inactive)
REMARK    1  A    between atoms: C1_1  and  C6_6 
REMARK       I    between atoms: C1_1  and  N10_10 
REMARK    2  A    between atoms: C7_7  and  C8_8 
REMARK    3  A    between atoms: C7_7  and  C9_9 
REMARK    4  A    between atoms: C8_8  and  N10_10 
ROOT
HETATM    1  C1  UNL     1     -34.185   5.959   3.359  1.00 20.00     0.218 C 
HETATM    2  C5  UNL     1     -32.662   5.161   1.515  1.00 20.00     0.152 C 
HETATM    3  N10 UNL     1     -33.213   6.223   2.367  1.00 20.00    -0.356 N 
HETATM    4  O11 UNL     1     -34.675   6.818   4.097  1.00 20.00    -0.273 OA
ENDROOT
BRANCH   3   5
HETATM    5  C8  UNL     1     -32.705   7.546   2.133  1.00 20.00     0.125 C 
BRANCH   5   6
HETATM    6  C7  UNL     1     -32.970   8.030   0.709  1.00 20.00     0.024 C 
BRANCH   6   7
HETATM    7  C9  UNL     1     -32.423   9.435   0.386  1.00 20.00    -0.021 C 
HETATM    8  C3  UNL     1     -30.904   9.454   0.576  1.00 20.00     0.009 C 
HETATM    9  C4  UNL     1     -33.064  10.524   1.247  1.00 20.00     0.009 C 
ENDBRANCH   6   7
ENDBRANCH   5   6
ENDBRANCH   3   5
BRANCH   1  10
HETATM   10  C6  UNL     1     -34.614   4.504   3.479  1.00 20.00     0.098 C 
HETATM   11  C2  UNL     1     -33.752   3.716   4.452  1.00 20.00     0.014 C 
ENDBRANCH   1  10
TORSDOF 4
