REMARK  3 active torsions:
REMARK  status: ('A' for Active; 'I' for Inactive)
REMARK    1  A    between atoms: C5_5  and  S11_11 
REMARK    2  A    between atoms: C8_8  and  C9_9 
REMARK    3  A    between atoms: C8_8  and  S11_11 
ROOT
HETATM    1  C1  UNL     1     -34.128   4.797   3.948  1.00 20.00     0.128 C 
HETATM    2  C2  UNL     1     -34.853   6.072   4.298  1.00 20.00     0.079 C 
HETATM    3  C3  UNL     1     -33.056   5.016   2.909  1.00 20.00     0.093 C 
HETATM    4  C4  UNL     1     -33.970   7.125   3.636  1.00 20.00     0.023 C 
HETATM    5  C5  UNL     1     -33.409   6.414   2.407  1.00 20.00     0.054 C 
HETATM    6  O10 UNL     1     -34.378   3.710   4.452  1.00 20.00    -0.298 OA
ENDROOT
BRANCH   5   7
HETATM    7  S11 UNL     1     -31.976   7.270   1.702  1.00 20.00    -0.164 SA
BRANCH   7   8
HETATM    8  C8  UNL     1     -32.802   8.812   1.253  1.00 20.00     0.078 C 
BRANCH   8   9
HETATM    9  C9  UNL     1     -31.919   9.847   0.536  1.00 20.00    -0.013 C 
HETATM   10  C6  UNL     1     -31.343   9.322  -0.781  1.00 20.00     0.010 C 
HETATM   11  C7  UNL     1     -32.632  11.183   0.316  1.00 20.00     0.010 C 
ENDBRANCH   8   9
ENDBRANCH   7   8
ENDBRANCH   5   7
TORSDOF 3
