REMARK  0 active torsions:
REMARK  status: ('A' for Active; 'I' for Inactive)
ROOT
HETATM    1  C1  UNL     1     -31.825   6.791   0.697  1.00 20.00     0.003 C 
HETATM    2  C2  UNL     1     -32.158   8.080   1.462  1.00 20.00     0.037 C 
HETATM    3  C3  UNL     1     -32.590   5.660   1.402  1.00 20.00     0.017 C 
HETATM    4  C4  UNL     1     -33.963   8.027   4.803  1.00 20.00     0.280 C 
HETATM    5  C5  UNL     1     -34.882   6.810   4.667  1.00 20.00     0.104 C 
HETATM    6  C6  UNL     1     -32.710   7.583   2.796  1.00 20.00     0.234 C 
HETATM    7  C7  UNL     1     -33.541   6.384   2.347  1.00 20.00     0.080 C 
HETATM    8  N8  UNL     1     -33.500   8.571   3.520  1.00 20.00     0.089 N 
HETATM    9  S9  UNL     1     -34.092   5.428   3.777  1.00 20.00    -0.160 SA
HETATM   10  H22 UNL     1     -34.308   8.843   2.959  1.00 20.00     0.316 HD
ENDROOT
TORSDOF 0
