REMARK  3 active torsions:
REMARK  status: ('A' for Active; 'I' for Inactive)
REMARK    1  A    between atoms: C5_5  and  C8_8 
REMARK    2  A    between atoms: C6_6  and  C9_9 
REMARK    3  A    between atoms: C9_9  and  C10_10 
ROOT
HETATM    1  C1  UNL     1     -32.678   5.658   1.163  1.00 20.00     0.001 C 
HETATM    2  C2  UNL     1     -33.378   5.774   2.515  1.00 20.00     0.005 C 
HETATM    3  C3  UNL     1     -31.388   6.473   1.124  1.00 20.00     0.005 C 
HETATM    4  C4  UNL     1     -32.332   8.050   2.862  1.00 20.00     0.009 C 
HETATM    5  C5  UNL     1     -33.634   7.236   2.902  1.00 20.00    -0.014 C 
HETATM    6  C6  UNL     1     -31.593   7.942   1.519  1.00 20.00    -0.013 C 
ENDROOT
BRANCH   6   7
HETATM    7  C9  UNL     1     -32.303   8.731   0.415  1.00 20.00     0.020 C 
BRANCH   7   8
HETATM    8  C10 UNL     1     -32.174  10.237   0.581  1.00 20.00     0.115 C 
HETATM    9 CL11 UNL     1     -33.033  11.128  -0.697  1.00 20.00    -0.130 Cl
ENDBRANCH   7   8
ENDBRANCH   6   7
BRANCH   5  10
HETATM   10  C8  UNL     1     -34.276   7.319   4.287  1.00 20.00     0.000 C 
HETATM   11  C7  UNL     1     -35.561   6.562   4.345  1.00 20.00     0.005 C 
ENDBRANCH   5  10
TORSDOF 3
