REMARK  3 active torsions:
REMARK  status: ('A' for Active; 'I' for Inactive)
REMARK    1  A    between atoms: C5_5  and  C8_8 
REMARK    2  A    between atoms: C6_6  and  C9_9 
REMARK    3  A    between atoms: C9_9  and  C10_10 
ROOT
HETATM    1  C1  UNL     1     -33.391   7.700   3.878  1.00 20.00     0.001 C 
HETATM    2  C2  UNL     1     -32.621   8.290   2.700  1.00 20.00     0.005 C 
HETATM    3  C3  UNL     1     -34.505   6.765   3.412  1.00 20.00     0.005 C 
HETATM    4  C4  UNL     1     -33.201   6.264   1.304  1.00 20.00     0.009 C 
HETATM    5  C5  UNL     1     -32.075   7.200   1.770  1.00 20.00    -0.014 C 
HETATM    6  C6  UNL     1     -34.007   5.663   2.466  1.00 20.00    -0.013 C 
ENDROOT
BRANCH   6   7
HETATM    7  C9  UNL     1     -33.212   4.590   3.214  1.00 20.00     0.020 C 
BRANCH   7   8
HETATM    8  C10 UNL     1     -33.994   3.952   4.352  1.00 20.00     0.115 C 
HETATM    9 CL11 UNL     1     -33.036   2.732   5.223  1.00 20.00    -0.130 Cl
ENDBRANCH   7   8
ENDBRANCH   6   7
BRANCH   5  10
HETATM   10  C8  UNL     1     -31.366   7.825   0.568  1.00 20.00     0.000 C 
HETATM   11  C7  UNL     1     -32.300   8.651  -0.253  1.00 20.00     0.005 C 
ENDBRANCH   5  10
TORSDOF 3
