REMARK  4 active torsions:
REMARK  status: ('A' for Active; 'I' for Inactive)
REMARK    1  A    between atoms: C1_1  and  C6_6 
REMARK    2  A    between atoms: C1_1  and  C11_11 
REMARK    3  A    between atoms: C7_7  and  C12_12 
REMARK    4  A    between atoms: C11_11  and  C13_13 
ROOT
HETATM    1  C2  UNL     1     -35.798   6.413   3.898  1.00 20.00     0.001 C 
HETATM    2  C3  UNL     1     -34.782   7.499   4.249  1.00 20.00     0.012 C 
HETATM    3  C4  UNL     1     -35.391   5.051   4.450  1.00 20.00     0.005 C 
HETATM    4  C5  UNL     1     -32.957   5.726   4.356  1.00 20.00     0.016 C 
HETATM    5  C6  UNL     1     -33.349   7.126   3.887  1.00 20.00     0.056 C 
HETATM    6  C7  UNL     1     -33.989   4.651   3.977  1.00 20.00    -0.014 C 
ENDROOT
BRANCH   5   7
HETATM    7  C1  UNL     1     -33.122   7.205   2.386  1.00 20.00     0.131 C 
HETATM    8  O14 UNL     1     -32.788   6.210   1.744  1.00 20.00    -0.298 OA
BRANCH   7   9
HETATM    9  C11 UNL     1     -33.374   8.559   1.741  1.00 20.00     0.082 C 
BRANCH   9  10
HETATM   10  C13 UNL     1     -32.483   8.841   0.522  1.00 20.00    -0.016 C 
HETATM   11  C9  UNL     1     -30.999   8.818   0.897  1.00 20.00     0.010 C 
HETATM   12  C10 UNL     1     -32.840  10.200  -0.084  1.00 20.00     0.010 C 
ENDBRANCH   9  10
ENDBRANCH   7   9
ENDBRANCH   5   7
BRANCH   6  13
HETATM   13  C12 UNL     1     -33.591   3.295   4.559  1.00 20.00     0.000 C 
HETATM   14  C8  UNL     1     -32.244   2.864   4.080  1.00 20.00     0.005 C 
ENDBRANCH   6  13
TORSDOF 4
