REMARK  2 active torsions:
REMARK  status: ('A' for Active; 'I' for Inactive)
REMARK    1  A    between atoms: C8_8  and  C12_12 
REMARK    2  A    between atoms: C11_11  and  N13_13 
ROOT
HETATM    1  C1  UNL     1     -33.095   2.737   4.756  1.00 20.00     0.013 C 
HETATM    2  C2  UNL     1     -33.808   3.700   4.679  1.00 20.00    -0.087 C 
HETATM    3  C11 UNL     1     -34.683   4.871   4.587  1.00 20.00     0.364 C 
ENDROOT
BRANCH   3   4
HETATM    4  N13 UNL     1     -34.077   5.904   3.746  1.00 20.00     0.099 N 
HETATM    5  C6  UNL     1     -34.668   7.217   4.009  1.00 20.00     0.273 C 
HETATM    6  C3  UNL     1     -33.800   8.407   3.552  1.00 20.00     0.031 C 
HETATM    7  C4  UNL     1     -32.436   8.035   2.961  1.00 20.00     0.007 C 
HETATM    8  C8  UNL     1     -32.502   7.369   1.572  1.00 20.00    -0.010 C 
HETATM    9  C5  UNL     1     -33.795   6.584   1.303  1.00 20.00     0.035 C 
HETATM   10  C7  UNL     1     -34.127   5.501   2.335  1.00 20.00     0.274 C 
BRANCH   8  11
HETATM   11  C12 UNL     1     -32.318   8.423   0.472  1.00 20.00    -0.019 C 
HETATM   12  C9  UNL     1     -33.095   9.689   0.816  1.00 20.00     0.010 C 
HETATM   13  C10 UNL     1     -30.838   8.731   0.274  1.00 20.00     0.010 C 
ENDBRANCH   8  11
ENDBRANCH   3   4
TORSDOF 2
