REMARK  3 active torsions:
REMARK  status: ('A' for Active; 'I' for Inactive)
REMARK    1  A    between atoms: C5_5  and  C9_9 
REMARK    2  A    between atoms: C6_6  and  C10_10 
REMARK    3  A    between atoms: C10_10  and  O11_11 
ROOT
HETATM    1  C1  UNL     1     -31.788   5.868   1.284  1.00 20.00     0.001 C 
HETATM    2  C2  UNL     1     -31.387   7.259   1.771  1.00 20.00     0.005 C 
HETATM    3  C3  UNL     1     -32.661   5.143   2.304  1.00 20.00     0.007 C 
HETATM    4  C4  UNL     1     -33.482   7.366   3.184  1.00 20.00     0.011 C 
HETATM    5  C5  UNL     1     -32.588   8.119   2.186  1.00 20.00    -0.014 C 
HETATM    6  C6  UNL     1     -33.893   5.969   2.693  1.00 20.00     0.014 C 
ENDROOT
BRANCH   6   7
HETATM    7  C10 UNL     1     -34.709   5.244   3.762  1.00 20.00     0.118 C 
HETATM    8  C8  UNL     1     -33.905   5.039   5.033  1.00 20.00     0.040 C 
BRANCH   7   9
HETATM    9  O11 UNL     1     -35.871   6.010   4.051  1.00 20.00    -0.396 OA
HETATM   10  H31 UNL     1     -36.365   5.524   4.731  1.00 20.00     0.210 HD
ENDBRANCH   7   9
ENDBRANCH   6   7
BRANCH   5  11
HETATM   11  C9  UNL     1     -33.381   8.609   0.971  1.00 20.00     0.000 C 
HETATM   12  C7  UNL     1     -32.521   9.385   0.029  1.00 20.00     0.005 C 
ENDBRANCH   5  11
TORSDOF 3
