REMARK  3 active torsions:
REMARK  status: ('A' for Active; 'I' for Inactive)
REMARK    1  A    between atoms: C5_5  and  C9_9 
REMARK    2  A    between atoms: C6_6  and  C10_10 
REMARK    3  A    between atoms: C6_6  and  O11_11 
ROOT
HETATM    1  C1  UNL     1     -32.727   5.761   0.761  1.00 20.00     0.003 C 
HETATM    2  C2  UNL     1     -32.286   7.183   0.430  1.00 20.00     0.005 C 
HETATM    3  C3  UNL     1     -33.894   5.747   1.748  1.00 20.00     0.038 C 
HETATM    4  C4  UNL     1     -33.107   7.973   2.689  1.00 20.00     0.042 C 
HETATM    5  C5  UNL     1     -31.934   7.977   1.694  1.00 20.00    -0.012 C 
HETATM    6  C6  UNL     1     -33.610   6.557   3.022  1.00 20.00     0.058 C 
ENDROOT
BRANCH   6   7
HETATM    7  C10 UNL     1     -34.853   6.616   3.911  1.00 20.00     0.033 C 
HETATM    8  C8  UNL     1     -35.297   5.253   4.326  1.00 20.00     0.008 C 
ENDBRANCH   6   7
BRANCH   6   9
HETATM    9  O11 UNL     1     -32.586   5.869   3.750  1.00 20.00    -0.390 OA
HETATM   10  H31 UNL     1     -32.423   6.394   4.547  1.00 20.00     0.210 HD
ENDBRANCH   6   9
BRANCH   5  11
HETATM   11  C9  UNL     1     -31.534   9.409   1.337  1.00 20.00     0.000 C 
HETATM   12  C7  UNL     1     -32.653  10.145   0.677  1.00 20.00     0.005 C 
ENDBRANCH   5  11
TORSDOF 3
