REMARK  3 active torsions:
REMARK  status: ('A' for Active; 'I' for Inactive)
REMARK    1  A    between atoms: C1_1  and  C6_6 
REMARK    2  A    between atoms: C1_1  and  C10_10 
REMARK    3  A    between atoms: C7_7  and  C11_11 
ROOT
HETATM    1  C2  UNL     1     -35.539   6.466   4.398  1.00 20.00     0.001 C 
HETATM    2  C3  UNL     1     -34.443   7.153   3.588  1.00 20.00     0.012 C 
HETATM    3  C4  UNL     1     -35.007   5.244   5.143  1.00 20.00     0.005 C 
HETATM    4  C5  UNL     1     -33.214   4.955   3.385  1.00 20.00     0.016 C 
HETATM    5  C6  UNL     1     -33.761   6.171   2.643  1.00 20.00     0.055 C 
HETATM    6  C7  UNL     1     -34.316   4.255   4.194  1.00 20.00    -0.014 C 
ENDROOT
BRANCH   5   7
HETATM    7  C1  UNL     1     -32.586   6.888   2.006  1.00 20.00     0.130 C 
HETATM    8  O12 UNL     1     -31.582   6.272   1.654  1.00 20.00    -0.298 OA
BRANCH   7   9
HETATM    9  C10 UNL     1     -32.733   8.389   1.836  1.00 20.00     0.074 C 
HETATM   10  C8  UNL     1     -31.503   9.031   1.219  1.00 20.00     0.013 C 
ENDBRANCH   7   9
ENDBRANCH   5   7
BRANCH   6  11
HETATM   11  C11 UNL     1     -33.746   3.070   4.970  1.00 20.00     0.000 C 
HETATM   12  C9  UNL     1     -33.102   2.074   4.062  1.00 20.00     0.005 C 
ENDBRANCH   6  11
TORSDOF 3
