REMARK  0 active torsions:
REMARK  status: ('A' for Active; 'I' for Inactive)
ROOT
HETATM    1  C1  UNL     1     -33.739   7.826   4.047  1.00 20.00     0.066 C 
HETATM    2  C2  UNL     1     -33.998   6.662   1.824  1.00 20.00     0.077 C 
HETATM    3  C3  UNL     1     -32.335   8.221   3.610  1.00 20.00     0.171 C 
HETATM    4  C4  UNL     1     -34.224   5.255   4.023  1.00 20.00     0.207 A 
HETATM    5  C5  UNL     1     -34.146   6.587   3.315  1.00 20.00     0.087 A 
HETATM    6  C6  UNL     1     -32.584   7.152   1.452  1.00 20.00     0.056 C 
HETATM    7  C7  UNL     1     -31.523   6.063   1.669  1.00 20.00     0.045 C 
HETATM    8  C8  UNL     1     -32.565   7.557  -0.029  1.00 20.00     0.045 C 
HETATM    9  O9  UNL     1     -35.396   6.035   3.750  1.00 20.00    -0.375 OA
HETATM   10  O10 UNL     1     -32.256   8.347   2.187  1.00 20.00    -0.381 OA
ENDROOT
TORSDOF 0
