REMARK  3 active torsions:
REMARK  status: ('A' for Active; 'I' for Inactive)
REMARK    1  A    between atoms: C1_1  and  C9_9 
REMARK    2  A    between atoms: C6_6  and  C9_9 
REMARK    3  A    between atoms: C7_7  and  C10_10 
ROOT
HETATM    1  C2  UNL     1     -31.654   5.324   1.135  1.00 20.00     0.001 C 
HETATM    2  C3  UNL     1     -32.868   5.252   2.058  1.00 20.00     0.005 C 
HETATM    3  C4  UNL     1     -31.567   6.670   0.422  1.00 20.00     0.005 C 
HETATM    4  C5  UNL     1     -32.798   7.763   2.341  1.00 20.00     0.009 C 
HETATM    5  C6  UNL     1     -32.883   6.410   3.063  1.00 20.00    -0.008 C 
HETATM    6  C7  UNL     1     -31.574   7.838   1.417  1.00 20.00    -0.014 C 
ENDROOT
BRANCH   5   7
HETATM    7  C9  UNL     1     -34.131   6.346   3.942  1.00 20.00     0.074 C 
BRANCH   7   8
HETATM    8  C1  UNL     1     -34.230   5.050   4.700  1.00 20.00     0.231 C 
HETATM    9  O11 UNL     1     -35.142   4.237   4.591  1.00 20.00    -0.307 OA
ENDBRANCH   7   8
ENDBRANCH   5   7
BRANCH   6  10
HETATM   10  C10 UNL     1     -31.537   9.175   0.679  1.00 20.00     0.000 C 
HETATM   11  C8  UNL     1     -32.735   9.356  -0.194  1.00 20.00     0.005 C 
ENDBRANCH   6  10
TORSDOF 3
