REMARK  1 active torsions:
REMARK  status: ('A' for Active; 'I' for Inactive)
REMARK    1  A    between atoms: C6_6  and  C9_9 
ROOT
HETATM    1  C1  UNL     1     -34.849   6.608   3.571  1.00 20.00     0.085 C 
HETATM    2  C2  UNL     1     -31.451   5.803   1.970  1.00 20.00     0.003 C 
HETATM    3  C3  UNL     1     -31.516   6.847   0.858  1.00 20.00     0.005 C 
HETATM    4  C4  UNL     1     -32.819   5.578   2.613  1.00 20.00     0.041 C 
HETATM    5  C5  UNL     1     -33.493   7.941   1.994  1.00 20.00     0.045 C 
HETATM    6  C6  UNL     1     -32.114   8.170   1.351  1.00 20.00    -0.012 C 
HETATM    7  C7  UNL     1     -33.477   6.877   3.106  1.00 20.00     0.125 C 
HETATM    8  N10 UNL     1     -35.929   6.396   3.938  1.00 20.00    -0.195 NA
HETATM    9 CL11 UNL     1     -32.589   7.504   4.540  1.00 20.00    -0.103 Cl
ENDROOT
BRANCH   6  10
HETATM   10  C9  UNL     1     -32.218   9.172   0.202  1.00 20.00     0.000 C 
HETATM   11  C8  UNL     1     -32.756  10.486   0.665  1.00 20.00     0.005 C 
ENDBRANCH   6  10
TORSDOF 1
