REMARK  1 active torsions:
REMARK  status: ('A' for Active; 'I' for Inactive)
REMARK    1  A    between atoms: C8_8  and  N10_10 
ROOT
HETATM    1  C1  UNL     1     -34.062   5.239   3.859  1.00 20.00     0.177 C 
HETATM    2  N9  UNL     1     -33.861   4.144   4.186  1.00 20.00    -0.172 NA
HETATM    3  N10 UNL     1     -34.296   6.509   3.484  1.00 20.00    -0.324 N 
HETATM    4  H22 UNL     1     -34.456   7.235   4.195  1.00 20.00     0.172 HD
ENDROOT
BRANCH   3   5
HETATM    5  C8  UNL     1     -33.838   7.079   2.198  1.00 20.00     0.096 C 
HETATM    6  C5  UNL     1     -32.838   8.227   2.430  1.00 20.00     0.031 C 
HETATM    7  C6  UNL     1     -31.572   7.733   1.703  1.00 20.00    -0.012 C 
HETATM    8  C2  UNL     1     -31.826   7.751   0.185  1.00 20.00     0.005 C 
HETATM    9  C4  UNL     1     -31.599   6.237   2.006  1.00 20.00     0.011 C 
HETATM   10  C3  UNL     1     -32.796   6.577  -0.017  1.00 20.00     0.007 C 
HETATM   11  C7  UNL     1     -32.999   6.048   1.414  1.00 20.00     0.009 C 
ENDBRANCH   3   5
TORSDOF 1
