REMARK  0 active torsions:
REMARK  status: ('A' for Active; 'I' for Inactive)
ROOT
HETATM    1  C1  UNL     1     -33.151   6.028   1.689  1.00 20.00     0.035 C 
HETATM    2  C2  UNL     1     -31.911   6.914   1.572  1.00 20.00     0.011 C 
HETATM    3  C3  UNL     1     -32.729   8.568   3.318  1.00 20.00     0.043 C 
HETATM    4  C4  UNL     1     -33.870   6.240   2.980  1.00 20.00     0.151 A 
HETATM    5  C5  UNL     1     -33.688   7.510   3.766  1.00 20.00     0.151 A 
HETATM    6  C6  UNL     1     -32.184   8.406   1.877  1.00 20.00    -0.045 C 
HETATM    7  C7  UNL     1     -33.156   9.014   0.847  1.00 20.00     0.015 C 
HETATM    8  C8  UNL     1     -30.853   9.179   1.766  1.00 20.00     0.015 C 
HETATM    9  O9  UNL     1     -34.835   7.309   2.938  1.00 20.00    -0.375 OA
ENDROOT
TORSDOF 0
