REMARK  3 active torsions:
REMARK  status: ('A' for Active; 'I' for Inactive)
REMARK    1  A    between atoms: C6_6  and  C10_10 
REMARK    2  A    between atoms: C7_7  and  N11_11 
REMARK    3  A    between atoms: C9_9  and  N11_11 
ROOT
HETATM    1  C1  UNL     1     -33.271   2.681   4.536  1.00 20.00     0.013 C 
HETATM    2  C2  UNL     1     -34.039   3.562   4.261  1.00 20.00    -0.087 C 
HETATM    3  C9  UNL     1     -34.980   4.633   3.925  1.00 20.00     0.362 C 
ENDROOT
BRANCH   3   4
HETATM    4  N11 UNL     1     -34.303   5.925   3.907  1.00 20.00     0.098 N 
HETATM    5  H28 UNL     1     -34.999   6.666   4.006  1.00 20.00     0.317 HD
BRANCH   4   6
HETATM    6  C7  UNL     1     -33.568   6.114   2.670  1.00 20.00     0.222 C 
HETATM    7  C4  UNL     1     -32.230   5.385   2.661  1.00 20.00     0.036 C 
HETATM    8  C3  UNL     1     -31.520   6.025   1.475  1.00 20.00     0.007 C 
HETATM    9  C6  UNL     1     -31.931   7.505   1.522  1.00 20.00    -0.013 C 
HETATM   10  C5  UNL     1     -33.170   7.570   2.434  1.00 20.00     0.040 C 
BRANCH   9  11
HETATM   11  C10 UNL     1     -32.197   8.069   0.132  1.00 20.00     0.000 C 
HETATM   12  C8  UNL     1     -32.610   9.505   0.184  1.00 20.00     0.005 C 
ENDBRANCH   9  11
ENDBRANCH   4   6
ENDBRANCH   3   4
TORSDOF 3
