REMARK  3 active torsions:
REMARK  status: ('A' for Active; 'I' for Inactive)
REMARK    1  A    between atoms: C6_6  and  C10_10 
REMARK    2  A    between atoms: C7_7  and  N11_11 
REMARK    3  A    between atoms: C9_9  and  N11_11 
ROOT
HETATM    1  C1  UNL     1     -32.419   9.621   0.162  1.00 20.00     0.013 C 
HETATM    2  C2  UNL     1     -31.991   8.695   0.795  1.00 20.00    -0.087 C 
HETATM    3  C9  UNL     1     -31.465   7.564   1.564  1.00 20.00     0.362 C 
ENDROOT
BRANCH   3   4
HETATM    4  N11 UNL     1     -32.156   7.445   2.838  1.00 20.00     0.098 N 
HETATM    5  H28 UNL     1     -31.588   6.899   3.483  1.00 20.00     0.317 HD
BRANCH   4   6
HETATM    6  C7  UNL     1     -33.431   6.789   2.669  1.00 20.00     0.222 C 
HETATM    7  C4  UNL     1     -34.368   7.091   3.838  1.00 20.00     0.036 C 
HETATM    8  C3  UNL     1     -34.111   5.954   4.816  1.00 20.00     0.007 C 
HETATM    9  C6  UNL     1     -34.002   4.741   3.896  1.00 20.00    -0.013 C 
HETATM   10  C5  UNL     1     -33.264   5.263   2.655  1.00 20.00     0.040 C 
BRANCH   9  11
HETATM   11  C10 UNL     1     -33.310   3.557   4.552  1.00 20.00     0.000 C 
HETATM   12  C8  UNL     1     -33.199   2.389   3.624  1.00 20.00     0.005 C 
ENDBRANCH   9  11
ENDBRANCH   4   6
ENDBRANCH   3   4
TORSDOF 3
