REMARK  0 active torsions:
REMARK  status: ('A' for Active; 'I' for Inactive)
ROOT
HETATM    1  C1  UNL     1     -32.978   5.869   1.504  1.00 20.00     0.004 C 
HETATM    2  C2  UNL     1     -31.702   6.651   1.207  1.00 20.00     0.040 C 
HETATM    3  C3  UNL     1     -33.393   6.011   2.970  1.00 20.00     0.009 C 
HETATM    4  C4  UNL     1     -32.285   8.294   3.076  1.00 20.00     0.049 C 
HETATM    5  C5  UNL     1     -30.993   9.137   0.986  1.00 20.00     0.207 A 
HETATM    6  C6  UNL     1     -31.825   8.073   1.662  1.00 20.00     0.083 A 
HETATM    7  C7  UNL     1     -33.557   7.484   3.420  1.00 20.00    -0.045 C 
HETATM    8  C8  UNL     1     -33.770   7.515   4.946  1.00 20.00     0.015 C 
HETATM    9  C9  UNL     1     -34.796   8.118   2.759  1.00 20.00     0.015 C 
HETATM   10  O10 UNL     1     -32.389   8.969   0.696  1.00 20.00    -0.375 OA
ENDROOT
TORSDOF 0
