REMARK  3 active torsions:
REMARK  status: ('A' for Active; 'I' for Inactive)
REMARK    1  A    between atoms: C4_4  and  C6_6 
REMARK    2  A    between atoms: C5_5  and  C6_6 
REMARK    3  A    between atoms: C5_5  and  O8_8 
ROOT
HETATM    1  C1  UNL     1     -32.774   6.312   1.692  1.00 20.00     0.066 C 
HETATM    2  C6  UNL     1     -32.498   7.646   2.270  1.00 20.00     0.116 C 
HETATM    3  N7  UNL     1     -32.988   5.266   1.238  1.00 20.00    -0.197 NA
ENDROOT
BRANCH   2   4
HETATM    4  C4  UNL     1     -33.118   7.772   3.671  1.00 20.00     0.017 C 
HETATM    5  C2  UNL     1     -34.634   7.612   3.671  1.00 20.00     0.006 C 
ENDBRANCH   2   4
BRANCH   2   6
HETATM    6  C5  UNL     1     -33.056   8.735   1.346  1.00 20.00     0.186 C 
BRANCH   6   7
HETATM    7  O8  UNL     1     -32.137   8.978   0.286  1.00 20.00    -0.395 OA
HETATM    8  C3  UNL     1     -32.619   9.978  -0.600  1.00 20.00     0.201 C 
ENDBRANCH   6   7
ENDBRANCH   2   6
TORSDOF 3
