REMARK  0 active torsions:
REMARK  status: ('A' for Active; 'I' for Inactive)
ROOT
HETATM    1  C1  UNL     1     -32.898   8.630   3.475  1.00 20.00     0.035 C 
HETATM    2  C2  UNL     1     -33.271   7.301   4.136  1.00 20.00     0.011 C 
HETATM    3  C3  UNL     1     -33.104   5.972   1.988  1.00 20.00     0.043 C 
HETATM    4  C4  UNL     1     -32.306   8.468   2.115  1.00 20.00     0.151 A 
HETATM    5  C5  UNL     1     -32.449   7.169   1.368  1.00 20.00     0.151 A 
HETATM    6  C6  UNL     1     -34.012   6.327   3.189  1.00 20.00    -0.045 C 
HETATM    7  C7  UNL     1     -34.340   5.036   3.963  1.00 20.00     0.015 C 
HETATM    8  C8  UNL     1     -35.337   6.937   2.693  1.00 20.00     0.015 C 
HETATM    9  O9  UNL     1     -31.219   7.546   2.019  1.00 20.00    -0.375 OA
ENDROOT
TORSDOF 0
