REMARK  0 active torsions:
REMARK  status: ('A' for Active; 'I' for Inactive)
ROOT
HETATM    1  C1  UNL     1     -32.432   9.240   1.057  1.00 20.00     0.064 C 
HETATM    2  C2  UNL     1     -33.260   6.941   1.402  1.00 20.00     0.020 C 
HETATM    3  C3  UNL     1     -33.180   8.591   3.317  1.00 20.00     0.020 C 
HETATM    4  C4  UNL     1     -33.421   5.792   2.398  1.00 20.00     0.010 C 
HETATM    5  C5  UNL     1     -33.340   7.442   4.313  1.00 20.00     0.010 C 
HETATM    6  C6  UNL     1     -32.511   8.127   2.019  1.00 20.00     0.093 C 
HETATM    7  C7  UNL     1     -34.083   6.220   3.727  1.00 20.00    -0.048 C 
HETATM    8  C8  UNL     1     -33.993   5.052   4.729  1.00 20.00     0.015 C 
HETATM    9  C9  UNL     1     -35.573   6.544   3.511  1.00 20.00     0.015 C 
HETATM   10  N10 UNL     1     -32.370  10.116   0.299  1.00 20.00    -0.197 NA
ENDROOT
TORSDOF 0
