REMARK  2 active torsions:
REMARK  status: ('A' for Active; 'I' for Inactive)
REMARK    1  A    between atoms: C2_2  and  C9_9 
REMARK    2  A    between atoms: C9_9  and  N11_11 
ROOT
HETATM    1  C1  UNL     1     -32.460   9.033   0.740  1.00 20.00    -0.109 C 
HETATM    2  C2  UNL     1     -32.348   8.037   1.401  1.00 20.00    -0.077 C 
HETATM    3  C8  UNL     1     -32.596  10.246  -0.066  1.00 20.00     0.112 C 
ENDROOT
BRANCH   2   4
HETATM    4  C9  UNL     1     -32.204   6.821   2.208  1.00 20.00     0.367 C 
BRANCH   4   5
HETATM    5  N11 UNL     1     -33.504   6.292   2.584  1.00 20.00     0.117 N 
HETATM    6  C6  UNL     1     -33.430   5.077   3.392  1.00 20.00     0.275 C 
HETATM    7  C4  UNL     1     -34.827   4.947   3.990  1.00 20.00     0.033 C 
HETATM    8  C5  UNL     1     -35.516   6.283   3.714  1.00 20.00     0.053 C 
HETATM    9  C7  UNL     1     -34.395   7.226   3.283  1.00 20.00     0.329 C 
HETATM   10  C3  UNL     1     -33.799   7.899   4.451  1.00 20.00     0.095 C 
HETATM   11  N10 UNL     1     -33.330   8.429   5.371  1.00 20.00    -0.195 NA
ENDBRANCH   4   5
ENDBRANCH   2   4
TORSDOF 2
