REMARK  3 active torsions:
REMARK  status: ('A' for Active; 'I' for Inactive)
REMARK    1  A    between atoms: C4_4  and  C6_6 
REMARK    2  A    between atoms: C5_5  and  C6_6 
REMARK    3  A    between atoms: C5_5  and  O8_8 
ROOT
HETATM    1  C1  UNL     1     -32.026   5.972   1.427  1.00 20.00     0.066 C 
HETATM    2  C6  UNL     1     -32.475   7.381   1.437  1.00 20.00     0.116 C 
HETATM    3  N7  UNL     1     -31.676   4.866   1.419  1.00 20.00    -0.197 NA
ENDROOT
BRANCH   2   4
HETATM    4  C4  UNL     1     -32.926   7.800   2.846  1.00 20.00     0.017 C 
HETATM    5  C2  UNL     1     -34.069   6.949   3.386  1.00 20.00     0.006 C 
ENDBRANCH   2   4
BRANCH   2   6
HETATM    6  C5  UNL     1     -31.339   8.290   0.954  1.00 20.00     0.186 C 
BRANCH   6   7
HETATM    7  O8  UNL     1     -31.787   9.642   0.930  1.00 20.00    -0.395 OA
HETATM    8  C3  UNL     1     -32.549   9.915  -0.237  1.00 20.00     0.201 C 
ENDBRANCH   6   7
ENDBRANCH   2   6
TORSDOF 3
