REMARK  4 active torsions:
REMARK  status: ('A' for Active; 'I' for Inactive)
REMARK    1  A    between atoms: C7_7  and  C10_10 
REMARK    2  A    between atoms: C8_8  and  N11_11 
REMARK    3  A    between atoms: C9_9  and  N11_11 
REMARK    4  A    between atoms: C10_10  and  N11_11 
ROOT
HETATM    1  C1  UNL     1     -35.304   6.338   3.778  1.00 20.00     0.013 C 
HETATM    2  C2  UNL     1     -34.327   6.993   3.536  1.00 20.00    -0.087 C 
HETATM    3  C9  UNL     1     -33.136   7.794   3.247  1.00 20.00     0.365 C 
ENDROOT
BRANCH   3   4
HETATM    4  N11 UNL     1     -32.611   7.478   1.919  1.00 20.00     0.104 N 
BRANCH   4   5
HETATM    5  C8  UNL     1     -31.824   6.246   1.960  1.00 20.00     0.224 A 
HETATM    6  C5  UNL     1     -32.507   4.906   1.949  1.00 20.00     0.038 A 
HETATM    7  C6  UNL     1     -31.728   5.360   0.749  1.00 20.00     0.038 A 
ENDBRANCH   4   5
BRANCH   4   8
HETATM    8  C10 UNL     1     -31.801   8.585   1.412  1.00 20.00     0.278 C 
BRANCH   8   9
HETATM    9  C7  UNL     1     -32.660   9.696   0.911  1.00 20.00     0.014 A 
HETATM   10  C3  UNL     1     -32.099  10.720  -0.036  1.00 20.00     0.007 A 
HETATM   11  C4  UNL     1     -33.108   9.718  -0.524  1.00 20.00     0.007 A 
ENDBRANCH   8   9
ENDBRANCH   4   8
ENDBRANCH   3   4
TORSDOF 4
