REMARK  5 active torsions:
REMARK  status: ('A' for Active; 'I' for Inactive)
REMARK    1  A    between atoms: C2_2  and  C8_8 
REMARK    2  A    between atoms: C3_3  and  C9_9 
REMARK    3  A    between atoms: C3_3  and  C11_11 
REMARK    4  A    between atoms: C8_8  and  C10_10 
REMARK    5  A    between atoms: C9_9  and  C10_10 
ROOT
HETATM    1  C1  UNL     1     -34.057   4.152   4.698  1.00 20.00    -0.111 C 
HETATM    2  C2  UNL     1     -34.567   5.110   4.185  1.00 20.00    -0.107 C 
HETATM    3  C4  UNL     1     -33.431   2.986   5.320  1.00 20.00     0.112 C 
ENDROOT
BRANCH   2   4
HETATM    4  C8  UNL     1     -35.187   6.281   3.550  1.00 20.00     0.094 C 
BRANCH   4   5
HETATM    5  C10 UNL     1     -34.412   7.574   3.826  1.00 20.00     0.020 C 
BRANCH   5   6
HETATM    6  C9  UNL     1     -32.949   7.535   3.375  1.00 20.00     0.080 C 
BRANCH   6   7
HETATM    7  C3  UNL     1     -32.784   7.337   1.872  1.00 20.00     0.134 C 
HETATM    8  O12 UNL     1     -33.190   6.308   1.325  1.00 20.00    -0.297 OA
BRANCH   7   9
HETATM    9  C11 UNL     1     -32.113   8.465   1.062  1.00 20.00     0.009 C 
HETATM   10  C5  UNL     1     -30.689   8.720   1.572  1.00 20.00     0.022 C 
HETATM   11  C6  UNL     1     -32.926   9.763   1.218  1.00 20.00     0.022 C 
HETATM   12  C7  UNL     1     -32.090   8.072  -0.421  1.00 20.00     0.022 C 
ENDBRANCH   7   9
ENDBRANCH   6   7
ENDBRANCH   5   6
ENDBRANCH   4   5
ENDBRANCH   2   4
TORSDOF 5
