REMARK  2 active torsions:
REMARK  status: ('A' for Active; 'I' for Inactive)
REMARK    1  A    between atoms: C6_6  and  C7_7 
REMARK    2  A    between atoms: C8_8  and  O9_9 
ROOT
HETATM    1  C1  UNL     1     -33.946   5.947   2.854  1.00 20.00     0.003 C 
HETATM    2  C2  UNL     1     -32.560   6.298   2.317  1.00 20.00     0.007 C 
HETATM    3  C5  UNL     1     -34.443   7.177   3.619  1.00 20.00     0.032 C 
HETATM    4  C7  UNL     1     -32.476   7.825   2.367  1.00 20.00     0.018 C 
HETATM    5  C8  UNL     1     -33.277   8.161   3.627  1.00 20.00     0.122 C 
ENDROOT
BRANCH   4   6
HETATM    6  C6  UNL     1     -33.069   8.467   1.115  1.00 20.00    -0.008 A 
HETATM    7  C3  UNL     1     -32.626   9.837   0.683  1.00 20.00     0.005 A 
HETATM    8  C4  UNL     1     -32.231   8.631  -0.122  1.00 20.00     0.005 A 
ENDBRANCH   4   6
BRANCH   5   9
HETATM    9  O9  UNL     1     -32.484   7.911   4.786  1.00 20.00    -0.395 OA
HETATM   10  H23 UNL     1     -33.059   8.043   5.558  1.00 20.00     0.210 HD
ENDBRANCH   5   9
TORSDOF 2
