REMARK  4 active torsions:
REMARK  status: ('A' for Active; 'I' for Inactive)
REMARK    1  A    between atoms: C1_1  and  C6_6 
REMARK    2  A    between atoms: C1_1  and  C8_8 
REMARK    3  A    between atoms: C7_7  and  C9_9 
REMARK    4  A    between atoms: C8_8  and  C9_9 
ROOT
HETATM    1  C1  UNL     1     -33.241   6.350   2.574  1.00 20.00     0.131 C 
HETATM    2  O10 UNL     1     -33.160   5.287   1.959  1.00 20.00    -0.298 OA
ENDROOT
BRANCH   1   3
HETATM    3  C6  UNL     1     -34.027   6.447   3.856  1.00 20.00     0.055 A 
HETATM    4  C2  UNL     1     -34.569   7.774   4.244  1.00 20.00     0.013 A 
HETATM    5  C3  UNL     1     -35.489   6.694   3.760  1.00 20.00     0.013 A 
ENDBRANCH   1   3
BRANCH   1   6
HETATM    6  C8  UNL     1     -32.570   7.628   2.103  1.00 20.00     0.079 C 
BRANCH   6   7
HETATM    7  C9  UNL     1     -33.080   8.090   0.742  1.00 20.00     0.012 C 
BRANCH   7   8
HETATM    8  C7  UNL     1     -32.417   9.387   0.309  1.00 20.00    -0.014 A 
HETATM    9  C4  UNL     1     -33.054  10.248  -0.747  1.00 20.00     0.005 A 
HETATM   10  C5  UNL     1     -33.027  10.710   0.683  1.00 20.00     0.005 A 
ENDBRANCH   7   8
ENDBRANCH   6   7
ENDBRANCH   1   6
TORSDOF 4
