REMARK  3 active torsions:
REMARK  status: ('A' for Active; 'I' for Inactive)
REMARK    1  A    between atoms: C4_4  and  C5_5 
REMARK    2  A    between atoms: C5_5  and  C6_6 
REMARK    3  A    between atoms: C6_6  and  C7_7 
ROOT
HETATM    1  C1  UNL     1     -33.142   7.810   3.525  1.00 20.00     0.033 C 
HETATM    2  C2  UNL     1     -34.261   6.878   3.940  1.00 20.00     0.168 C 
HETATM    3  C3  UNL     1     -33.180   5.950   2.097  1.00 20.00     0.172 C 
HETATM    4  C4  UNL     1     -32.972   7.454   2.065  1.00 20.00     0.011 C 
HETATM    5  O8  UNL     1     -34.132   5.694   3.141  1.00 20.00    -0.391 OA
ENDROOT
BRANCH   4   6
HETATM    6  C5  UNL     1     -31.640   7.875   1.473  1.00 20.00     0.008 C 
BRANCH   6   7
HETATM    7  C6  UNL     1     -31.421   9.385   1.594  1.00 20.00     0.015 C 
BRANCH   7   8
HETATM    8  C7  UNL     1     -32.490  10.160   0.834  1.00 20.00     0.114 C 
HETATM    9 CL9  UNL     1     -32.446   9.745  -0.895  1.00 20.00    -0.130 Cl
ENDBRANCH   7   8
ENDBRANCH   6   7
ENDBRANCH   4   6
TORSDOF 3
