REMARK  4 active torsions:
REMARK  status: ('A' for Active; 'I' for Inactive)
REMARK    1  A    between atoms: C5_5  and  C8_8 
REMARK    2  A    between atoms: C6_6  and  C9_9 
REMARK    3  A    between atoms: C9_9  and  C10_10 
REMARK    4  A    between atoms: C10_10  and  C11_11 
ROOT
HETATM    1  C1  UNL     1     -34.656   6.916   3.634  1.00 20.00     0.001 C 
HETATM    2  C2  UNL     1     -34.476   5.432   3.939  1.00 20.00     0.005 C 
HETATM    3  C3  UNL     1     -34.467   7.214   2.148  1.00 20.00     0.005 C 
HETATM    4  C4  UNL     1     -32.944   5.206   1.941  1.00 20.00     0.009 C 
HETATM    5  C5  UNL     1     -33.127   4.904   3.436  1.00 20.00    -0.014 C 
HETATM    6  C6  UNL     1     -33.134   6.691   1.595  1.00 20.00    -0.014 C 
ENDROOT
BRANCH   6   7
HETATM    7  C9  UNL     1     -31.952   7.541   2.071  1.00 20.00     0.005 C 
BRANCH   7   8
HETATM    8  C10 UNL     1     -32.117   8.997   1.651  1.00 20.00     0.015 C 
BRANCH   8   9
HETATM    9  C11 UNL     1     -32.167   9.118   0.133  1.00 20.00     0.114 C 
HETATM   10 CL12 UNL     1     -32.376  10.817  -0.348  1.00 20.00    -0.130 Cl
ENDBRANCH   8   9
ENDBRANCH   7   8
ENDBRANCH   6   7
BRANCH   5  11
HETATM   11  C8  UNL     1     -33.006   3.403   3.699  1.00 20.00     0.000 C 
HETATM   12  C7  UNL     1     -33.148   3.085   5.150  1.00 20.00     0.005 C 
ENDBRANCH   5  11
TORSDOF 4
