REMARK  4 active torsions:
REMARK  status: ('A' for Active; 'I' for Inactive)
REMARK    1  A    between atoms: C5_5  and  C8_8 
REMARK    2  A    between atoms: C6_6  and  C7_7 
REMARK    3  A    between atoms: C6_6  and  C8_8 
REMARK    4  A    between atoms: C7_7  and  C9_9 
ROOT
HETATM    1  C6  UNL     1     -33.056   6.619   1.802  1.00 20.00     0.021 C 
ENDROOT
BRANCH   1   2
HETATM    2  C7  UNL     1     -32.500   8.035   2.022  1.00 20.00     0.010 C 
BRANCH   2   3
HETATM    3  C9  UNL     1     -32.189   8.844   0.732  1.00 20.00    -0.051 C 
HETATM    4  C2  UNL     1     -32.998  10.156   0.783  1.00 20.00     0.014 C 
HETATM    5  C3  UNL     1     -32.605   8.064  -0.527  1.00 20.00     0.014 C 
HETATM    6  C4  UNL     1     -30.696   9.198   0.638  1.00 20.00     0.014 C 
ENDBRANCH   2   3
ENDBRANCH   1   2
BRANCH   1   7
HETATM    7  C8  UNL     1     -33.289   5.848   3.115  1.00 20.00     0.082 C 
HETATM    8 CL10 UNL     1     -34.483   6.706   4.140  1.00 20.00    -0.125 Cl
BRANCH   7   9
HETATM    9  C5  UNL     1     -33.767   4.417   2.825  1.00 20.00     0.016 C 
HETATM   10  C1  UNL     1     -34.033   3.596   4.080  1.00 20.00     0.006 C 
ENDBRANCH   7   9
ENDBRANCH   1   7
TORSDOF 4
