REMARK  2 active torsions:
REMARK  status: ('A' for Active; 'I' for Inactive)
REMARK    1  A    between atoms: C6_6  and  C7_7 
REMARK    2  A    between atoms: C8_8  and  O9_9 
ROOT
HETATM    1  C3  UNL     1     -32.299   7.883   2.779  1.00 20.00     0.007 C 
HETATM    2  C4  UNL     1     -33.399   6.830   2.720  1.00 20.00     0.032 C 
HETATM    3  C5  UNL     1     -31.823   6.547   0.860  1.00 20.00     0.036 C 
HETATM    4  C7  UNL     1     -31.800   8.000   1.341  1.00 20.00    -0.008 C 
HETATM    5  C8  UNL     1     -33.015   5.898   1.569  1.00 20.00     0.118 C 
ENDROOT
BRANCH   4   6
HETATM    6  C6  UNL     1     -32.686   8.908   0.489  1.00 20.00    -0.010 A 
HETATM    7  C1  UNL     1     -32.505  10.400   0.532  1.00 20.00     0.005 A 
HETATM    8  C2  UNL     1     -32.110   9.630  -0.697  1.00 20.00     0.005 A 
ENDBRANCH   4   6
BRANCH   5   9
HETATM    9  O9  UNL     1     -34.099   5.770   0.659  1.00 20.00    -0.396 OA
HETATM   10  H23 UNL     1     -34.841   5.400   1.163  1.00 20.00     0.210 HD
ENDBRANCH   5   9
TORSDOF 2
