REMARK  2 active torsions:
REMARK  status: ('A' for Active; 'I' for Inactive)
REMARK    1  A    between atoms: C2_2  and  C9_9 
REMARK    2  A    between atoms: C7_7  and  C9_9 
ROOT
HETATM    1  C3  UNL     1     -33.863   8.051   2.440  1.00 20.00     0.002 C 
HETATM    2  C4  UNL     1     -34.167   7.121   3.612  1.00 20.00     0.005 C 
HETATM    3  C5  UNL     1     -32.437   7.863   1.926  1.00 20.00     0.020 C 
HETATM    4  C6  UNL     1     -32.459   5.469   2.748  1.00 20.00     0.025 C 
HETATM    5  C7  UNL     1     -33.896   5.652   3.262  1.00 20.00    -0.010 C 
HETATM    6  C8  UNL     1     -32.110   6.406   1.588  1.00 20.00     0.082 C 
HETATM    7 CL10 UNL     1     -32.970   5.904   0.097  1.00 20.00    -0.125 Cl
ENDROOT
BRANCH   5   8
HETATM    8  C9  UNL     1     -34.151   4.755   4.473  1.00 20.00     0.031 C 
BRANCH   8   9
HETATM    9  C2  UNL     1     -33.934   3.314   4.134  1.00 20.00    -0.037 C 
HETATM   10  C1  UNL     1     -33.011   2.541   4.717  1.00 20.00     0.007 C 
ENDBRANCH   8   9
ENDBRANCH   5   8
TORSDOF 2
