REMARK  1 active torsions:
REMARK  status: ('A' for Active; 'I' for Inactive)
REMARK    1  A    between atoms: C9_9  and  C10_10 
ROOT
HETATM    1  C1  UNL     1     -33.121  10.035  -0.419  1.00 20.00     0.012 C 
HETATM    2  C2  UNL     1     -32.330   9.526   0.328  1.00 20.00    -0.117 C 
HETATM    3  C10 UNL     1     -31.354   8.917   1.231  1.00 20.00     0.098 C 
ENDROOT
BRANCH   3   4
HETATM    4  C9  UNL     1     -32.020   7.854   2.115  1.00 20.00     0.004 C 
HETATM    5  C5  UNL     1     -32.612   6.753   1.228  1.00 20.00     0.083 C 
HETATM    6  C3  UNL     1     -32.693   5.401   1.903  1.00 20.00     0.127 C 
HETATM    7  C4  UNL     1     -33.177   5.302   3.332  1.00 20.00     0.078 C 
HETATM    8  O11 UNL     1     -32.361   4.382   1.292  1.00 20.00    -0.298 OA
HETATM    9  C6  UNL     1     -34.229   6.332   3.717  1.00 20.00     0.007 C 
HETATM   10  C7  UNL     1     -33.625   7.671   4.132  1.00 20.00     0.001 C 
HETATM   11  C8  UNL     1     -33.096   8.526   2.983  1.00 20.00     0.006 C 
ENDBRANCH   3   4
TORSDOF 1
