REMARK  1 active torsions:
REMARK  status: ('A' for Active; 'I' for Inactive)
REMARK    1  A    between atoms: C8_8  and  C9_9 
ROOT
HETATM    1  C1  UNL     1     -31.723   6.730   0.917  1.00 20.00     0.006 C 
HETATM    2  C2  UNL     1     -31.435   7.922  -0.001  1.00 20.00     0.020 C 
HETATM    3  C5  UNL     1     -33.078   8.636   1.575  1.00 20.00     0.025 C 
HETATM    4  C8  UNL     1     -32.593   7.271   2.063  1.00 20.00    -0.009 C 
HETATM    5  C10 UNL     1     -31.875   9.144   0.794  1.00 20.00     0.082 C 
HETATM    6 CL12 UNL     1     -32.278  10.518  -0.245  1.00 20.00    -0.125 Cl
ENDROOT
BRANCH   4   7
HETATM    7  C9  UNL     1     -33.735   6.334   2.447  1.00 20.00    -0.006 C 
HETATM    8  C3  UNL     1     -34.588   6.933   3.570  1.00 20.00     0.031 C 
HETATM    9  C6  UNL     1     -35.646   5.938   4.031  1.00 20.00     0.168 C 
HETATM   10  O11 UNL     1     -35.043   4.712   4.441  1.00 20.00    -0.391 OA
HETATM   11  C7  UNL     1     -34.339   4.076   3.375  1.00 20.00     0.168 C 
HETATM   12  C4  UNL     1     -33.203   4.961   2.874  1.00 20.00     0.031 C 
ENDBRANCH   4   7
TORSDOF 1
