REMARK  1 active torsions:
REMARK  status: ('A' for Active; 'I' for Inactive)
REMARK    1  A    between atoms: C6_6  and  C7_7 
ROOT
HETATM    1  C3  UNL     1     -32.682   6.662   0.915  1.00 20.00     0.006 C 
HETATM    2  C4  UNL     1     -33.440   5.683   1.799  1.00 20.00     0.020 C 
HETATM    3  C5  UNL     1     -34.020   7.890   2.563  1.00 20.00     0.025 C 
HETATM    4  C7  UNL     1     -33.371   8.009   1.172  1.00 20.00    -0.009 C 
HETATM    5  C8  UNL     1     -33.645   6.497   3.067  1.00 20.00     0.082 C 
HETATM    6 CL9  UNL     1     -34.883   5.800   4.122  1.00 20.00    -0.125 Cl
ENDROOT
BRANCH   4   7
HETATM    7  C6  UNL     1     -32.410   9.183   1.061  1.00 20.00    -0.010 A 
HETATM    8  C1  UNL     1     -32.024   9.722  -0.288  1.00 20.00     0.005 A 
HETATM    9  C2  UNL     1     -32.909  10.530   0.619  1.00 20.00     0.005 A 
ENDBRANCH   4   7
TORSDOF 1
