REMARK  2 active torsions:
REMARK  status: ('A' for Active; 'I' for Inactive)
REMARK    1  A    between atoms: C4_4  and  C10_10 
REMARK    2  A    between atoms: C8_8  and  C10_10 
ROOT
HETATM    1  C5  UNL     1     -32.276   5.245   2.452  1.00 20.00     0.006 C 
HETATM    2  C6  UNL     1     -32.874   3.851   2.587  1.00 20.00     0.016 C 
HETATM    3  C7  UNL     1     -34.295   5.445   3.779  1.00 20.00     0.020 C 
HETATM    4  C8  UNL     1     -33.479   6.154   2.688  1.00 20.00    -0.009 C 
HETATM    5  C9  UNL     1     -33.851   3.981   3.749  1.00 20.00     0.058 C 
HETATM    6 BR12 UNL     1     -32.949   3.523   5.425  1.00 20.00    -0.091 Br
ENDROOT
BRANCH   4   7
HETATM    7  C10 UNL     1     -33.086   7.574   3.061  1.00 20.00     0.043 C 
BRANCH   7   8
HETATM    8  C4  UNL     1     -32.717   8.391   1.850  1.00 20.00    -0.051 A 
HETATM    9  C1  UNL     1     -32.940   9.795   1.741  1.00 20.00     0.014 A 
HETATM   10  C2  UNL     1     -32.512  10.294   0.530  1.00 20.00     0.050 A 
HETATM   11  S11 UNL     1     -31.844   9.073  -0.468  1.00 20.00    -0.113 SA
HETATM   12  C3  UNL     1     -32.128   7.872   0.719  1.00 20.00     0.056 A 
ENDBRANCH   7   8
ENDBRANCH   4   7
TORSDOF 2
