REMARK  3 active torsions:
REMARK  status: ('A' for Active; 'I' for Inactive)
REMARK    1  A    between atoms: C4_4  and  C7_7 
REMARK    2  A    between atoms: C7_7  and  C9_9 
REMARK    3  A    between atoms: C8_8  and  C9_9 
ROOT
HETATM    1  C1  UNL     1     -33.215   5.456   2.259  1.00 20.00     0.006 C 
HETATM    2  C2  UNL     1     -33.874   5.273   3.628  1.00 20.00     0.020 C 
HETATM    3  C3  UNL     1     -33.418   7.595   3.417  1.00 20.00     0.024 C 
HETATM    4  C4  UNL     1     -33.018   6.970   2.076  1.00 20.00    -0.013 C 
HETATM    5  C5  UNL     1     -34.455   6.634   3.987  1.00 20.00     0.082 C 
HETATM    6 CL10 UNL     1     -36.046   6.871   3.211  1.00 20.00    -0.125 Cl
ENDROOT
BRANCH   4   7
HETATM    7  C7  UNL     1     -31.603   7.340   1.656  1.00 20.00     0.005 C 
BRANCH   7   8
HETATM    8  C9  UNL     1     -31.458   8.847   1.447  1.00 20.00     0.000 C 
BRANCH   8   9
HETATM    9  C8  UNL     1     -32.431   9.356   0.383  1.00 20.00    -0.005 C 
HETATM   10  C6  UNL     1     -32.314  10.860   0.196  1.00 20.00     0.005 C 
ENDBRANCH   8   9
ENDBRANCH   7   8
ENDBRANCH   4   7
TORSDOF 3
