REMARK  1 active torsions:
REMARK  status: ('A' for Active; 'I' for Inactive)
REMARK    1  A    between atoms: C8_8  and  C10_10 
ROOT
HETATM    1  C1  UNL     1     -33.249   2.467   4.695  1.00 20.00     0.012 C 
HETATM    2  C2  UNL     1     -33.797   3.515   4.492  1.00 20.00    -0.117 C 
HETATM    3  C10 UNL     1     -34.482   4.785   4.251  1.00 20.00     0.097 C 
ENDROOT
BRANCH   3   4
HETATM    4  C8  UNL     1     -33.540   5.791   3.574  1.00 20.00    -0.002 C 
HETATM    5  C5  UNL     1     -34.074   7.213   3.826  1.00 20.00     0.005 C 
HETATM    6  C3  UNL     1     -33.108   8.348   3.497  1.00 20.00     0.000 C 
HETATM    7  C4  UNL     1     -32.573   8.365   2.067  1.00 20.00     0.001 C 
HETATM    8  C6  UNL     1     -31.561   7.254   1.809  1.00 20.00     0.016 C 
HETATM    9  C9  UNL     1     -32.181   5.932   1.366  1.00 20.00     0.058 C 
HETATM   10  C7  UNL     1     -33.458   5.472   2.070  1.00 20.00     0.021 C 
HETATM   11 BR11 UNL     1     -30.806   4.528   1.550  1.00 20.00    -0.091 Br
ENDBRANCH   3   4
TORSDOF 1
