REMARK  1 active torsions:
REMARK  status: ('A' for Active; 'I' for Inactive)
REMARK    1  A    between atoms: C4_4  and  C9_9 
ROOT
HETATM    1  C1  UNL     1     -33.407   5.345   3.351  1.00 20.00     0.052 A 
HETATM    2  C2  UNL     1     -34.821   7.139   4.014  1.00 20.00     0.123 A 
HETATM    3  C3  UNL     1     -35.305   5.016   4.746  1.00 20.00     0.158 A 
HETATM    4  C4  UNL     1     -33.709   6.702   3.313  1.00 20.00    -0.034 A 
HETATM    5  C5  UNL     1     -34.216   4.479   4.079  1.00 20.00     0.134 A 
HETATM    6  N11 UNL     1     -35.630   6.328   4.732  1.00 20.00    -0.269 NA
HETATM    7  F12 UNL     1     -33.949   3.170   4.134  1.00 20.00    -0.205 F 
ENDROOT
BRANCH   4   8
HETATM    8  C9  UNL     1     -32.848   7.671   2.530  1.00 20.00     0.021 C 
HETATM    9  C6  UNL     1     -31.616   7.024   1.860  1.00 20.00     0.011 C 
HETATM   10  C7  UNL     1     -31.361   7.801   0.563  1.00 20.00     0.021 C 
HETATM   11  C10 UNL     1     -32.321   8.981   0.613  1.00 20.00     0.083 C 
HETATM   12  C8  UNL     1     -33.517   8.429   1.374  1.00 20.00     0.029 C 
HETATM   13 CL13 UNL     1     -32.759   9.565  -0.999  1.00 20.00    -0.125 Cl
ENDBRANCH   4   8
TORSDOF 1
