REMARK  3 active torsions:
REMARK  status: ('A' for Active; 'I' for Inactive)
REMARK    1  A    between atoms: C4_4  and  C7_7 
REMARK    2  A    between atoms: C7_7  and  C9_9 
REMARK    3  A    between atoms: C8_8  and  C9_9 
ROOT
HETATM    1  C1  UNL     1     -33.323   7.868   3.565  1.00 20.00     0.006 C 
HETATM    2  C2  UNL     1     -34.077   6.950   4.533  1.00 20.00     0.020 C 
HETATM    3  C3  UNL     1     -33.354   5.596   2.707  1.00 20.00     0.024 C 
HETATM    4  C4  UNL     1     -33.080   7.042   2.292  1.00 20.00    -0.013 C 
HETATM    5  C5  UNL     1     -34.504   5.756   3.689  1.00 20.00     0.082 C 
HETATM    6 CL10 UNL     1     -34.768   4.302   4.661  1.00 20.00    -0.125 Cl
ENDROOT
BRANCH   4   7
HETATM    7  C7  UNL     1     -31.692   7.239   1.706  1.00 20.00     0.005 C 
BRANCH   7   8
HETATM    8  C9  UNL     1     -31.462   8.692   1.293  1.00 20.00     0.000 C 
BRANCH   8   9
HETATM    9  C8  UNL     1     -32.495   9.146   0.263  1.00 20.00    -0.005 C 
HETATM   10  C6  UNL     1     -32.292  10.601  -0.127  1.00 20.00     0.005 C 
ENDBRANCH   8   9
ENDBRANCH   7   8
ENDBRANCH   4   7
TORSDOF 3
