REMARK  2 active torsions:
REMARK  status: ('A' for Active; 'I' for Inactive)
REMARK    1  A    between atoms: C5_5  and  C8_8 
REMARK    2  A    between atoms: C8_8  and  C9_9 
ROOT
HETATM    1  C1  UNL     1     -33.850   7.981   4.455  1.00 20.00     0.002 C 
HETATM    2  C2  UNL     1     -34.718   6.928   3.765  1.00 20.00     0.005 C 
HETATM    3  C3  UNL     1     -32.675   8.466   3.602  1.00 20.00     0.020 C 
HETATM    4  C4  UNL     1     -33.015   6.641   1.887  1.00 20.00     0.024 C 
HETATM    5  C5  UNL     1     -33.910   5.932   2.925  1.00 20.00    -0.013 C 
HETATM    6  C6  UNL     1     -32.876   8.149   2.124  1.00 20.00     0.082 C 
HETATM    7 CL10 UNL     1     -31.514   8.794   1.162  1.00 20.00    -0.125 Cl
ENDROOT
BRANCH   5   8
HETATM    8  C8  UNL     1     -33.084   4.999   3.817  1.00 20.00     0.004 C 
BRANCH   8   9
HETATM    9  C9  UNL     1     -33.951   3.895   4.413  1.00 20.00    -0.004 C 
HETATM   10  C7  UNL     1     -33.127   2.954   5.277  1.00 20.00     0.005 C 
ENDBRANCH   8   9
ENDBRANCH   5   8
TORSDOF 2
