REMARK  4 active torsions:
REMARK  status: ('A' for Active; 'I' for Inactive)
REMARK    1  A    between atoms: C4_4  and  C8_8 
REMARK    2  A    between atoms: C5_5  and  C9_9 
REMARK    3  A    between atoms: C5_5  and  O11_11 
REMARK    4  A    between atoms: C9_9  and  C10_10 
ROOT
HETATM    1  C1  UNL     1     -32.989   7.866   3.882  1.00 20.00     0.007 C 
HETATM    2  C2  UNL     1     -33.595   6.764   4.759  1.00 20.00     0.038 C 
HETATM    3  C3  UNL     1     -33.647   5.972   2.504  1.00 20.00     0.042 C 
HETATM    4  C4  UNL     1     -33.226   7.443   2.425  1.00 20.00    -0.012 C 
HETATM    5  C5  UNL     1     -34.433   5.905   3.812  1.00 20.00     0.058 C 
ENDROOT
BRANCH   5   6
HETATM    6  C9  UNL     1     -34.641   4.483   4.309  1.00 20.00     0.037 C 
BRANCH   6   7
HETATM    7  C10 UNL     1     -33.314   3.741   4.452  1.00 20.00    -0.002 C 
HETATM    8  C7  UNL     1     -33.519   2.329   4.976  1.00 20.00     0.005 C 
ENDBRANCH   6   7
ENDBRANCH   5   6
BRANCH   5   9
HETATM    9  O11 UNL     1     -35.708   6.515   3.615  1.00 20.00    -0.390 OA
HETATM   10  H31 UNL     1     -36.199   5.936   3.011  1.00 20.00     0.210 HD
ENDBRANCH   5   9
BRANCH   4  11
HETATM   11  C8  UNL     1     -32.015   7.665   1.533  1.00 20.00     0.000 C 
HETATM   12  C6  UNL     1     -31.614   9.105   1.482  1.00 20.00     0.005 C 
ENDBRANCH   4  11
TORSDOF 4
