REMARK  3 active torsions:
REMARK  status: ('A' for Active; 'I' for Inactive)
REMARK    1  A    between atoms: C3_3  and  C5_5 
REMARK    2  A    between atoms: C5_5  and  C6_6 
REMARK    3  A    between atoms: C6_6  and  C7_7 
ROOT
HETATM    1  C5  UNL     1     -33.049   8.080   1.155  1.00 20.00     0.006 C 
ENDROOT
BRANCH   1   2
HETATM    2  C3  UNL     1     -32.370   9.203   0.430  1.00 20.00    -0.014 A 
HETATM    3  C1  UNL     1     -33.048   9.874  -0.732  1.00 20.00     0.005 A 
HETATM    4  C2  UNL     1     -32.881  10.610   0.568  1.00 20.00     0.005 A 
ENDBRANCH   1   2
BRANCH   1   5
HETATM    5  C6  UNL     1     -32.451   7.864   2.550  1.00 20.00     0.015 C 
BRANCH   5   6
HETATM    6  C7  UNL     1     -33.108   6.714   3.316  1.00 20.00     0.053 C 
HETATM    7  C4  UNL     1     -34.596   6.955   3.525  1.00 20.00     0.022 C 
HETATM    8 BR8  UNL     1     -32.905   5.037   2.320  1.00 20.00    -0.092 Br
ENDBRANCH   5   6
ENDBRANCH   1   5
TORSDOF 3
