REMARK  1 active torsions:
REMARK  status: ('A' for Active; 'I' for Inactive)
REMARK    1  A    between atoms: C5_5  and  C8_8 
ROOT
HETATM    1  C1  UNL     1     -31.956   6.785   1.551  1.00 20.00     0.007 C 
HETATM    2  C2  UNL     1     -33.234   5.990   1.839  1.00 20.00     0.041 C 
HETATM    3  C3  UNL     1     -32.970   7.825   3.473  1.00 20.00     0.045 C 
HETATM    4  C4  UNL     1     -34.523   5.796   4.135  1.00 20.00     0.207 A 
HETATM    5  C5  UNL     1     -32.202   8.163   2.184  1.00 20.00    -0.012 C 
HETATM    6  C6  UNL     1     -33.727   6.580   3.123  1.00 20.00     0.083 A 
HETATM    7  O9  UNL     1     -35.153   6.697   3.216  1.00 20.00    -0.375 OA
ENDROOT
BRANCH   5   8
HETATM    8  C8  UNL     1     -33.009   9.078   1.264  1.00 20.00     0.000 C 
HETATM    9  C7  UNL     1     -32.289   9.361  -0.017  1.00 20.00     0.005 C 
ENDBRANCH   5   8
TORSDOF 1
