REMARK  1 active torsions:
REMARK  status: ('A' for Active; 'I' for Inactive)
REMARK    1  A    between atoms: C7_7  and  C8_8 
ROOT
HETATM    1  C1  UNL     1     -33.319   5.842   1.468  1.00 20.00     0.002 C 
HETATM    2  C2  UNL     1     -31.989   6.475   1.061  1.00 20.00     0.005 C 
HETATM    3  C5  UNL     1     -33.607   6.041   2.954  1.00 20.00     0.016 C 
HETATM    4  C6  UNL     1     -32.203   8.147   2.946  1.00 20.00     0.020 C 
HETATM    5  C8  UNL     1     -31.878   7.955   1.456  1.00 20.00    -0.009 C 
HETATM    6  C9  UNL     1     -33.537   7.515   3.338  1.00 20.00     0.058 C 
HETATM    7 BR10 UNL     1     -33.784   7.687   5.272  1.00 20.00    -0.091 Br
ENDROOT
BRANCH   5   8
HETATM    8  C7  UNL     1     -32.752   8.845   0.568  1.00 20.00    -0.010 A 
HETATM    9  C3  UNL     1     -32.411  10.298   0.383  1.00 20.00     0.005 A 
HETATM   10  C4  UNL     1     -32.234   9.333  -0.757  1.00 20.00     0.005 A 
ENDBRANCH   5   8
TORSDOF 1
