REMARK  3 active torsions:
REMARK  status: ('A' for Active; 'I' for Inactive)
REMARK    1  A    between atoms: C2_2  and  C9_9 
REMARK    2  A    between atoms: C6_6  and  C9_9 
REMARK    3  A    between atoms: C7_7  and  O10_10 
ROOT
HETATM    1  C1  UNL     1     -32.364   9.369   0.879  1.00 20.00    -0.111 C 
HETATM    2  C2  UNL     1     -32.290   8.222   1.226  1.00 20.00    -0.107 C 
HETATM    3  C8  UNL     1     -32.456  10.766   0.456  1.00 20.00     0.112 C 
ENDROOT
BRANCH   2   4
HETATM    4  C9  UNL     1     -32.194   6.820   1.649  1.00 20.00     0.098 C 
BRANCH   4   5
HETATM    5  C6  UNL     1     -33.490   6.347   2.288  1.00 20.00    -0.001 C 
HETATM    6  C3  UNL     1     -33.866   7.143   3.535  1.00 20.00     0.008 C 
HETATM    7  C4  UNL     1     -34.847   6.217   4.241  1.00 20.00     0.032 C 
HETATM    8  C7  UNL     1     -34.211   4.841   4.081  1.00 20.00     0.118 C 
HETATM    9  C5  UNL     1     -33.436   4.886   2.760  1.00 20.00     0.037 C 
BRANCH   8  10
HETATM   10  O10 UNL     1     -33.289   4.611   5.142  1.00 20.00    -0.396 OA
HETATM   11  H24 UNL     1     -32.913   3.729   4.997  1.00 20.00     0.210 HD
ENDBRANCH   8  10
ENDBRANCH   4   5
ENDBRANCH   2   4
TORSDOF 3
