REMARK  3 active torsions:
REMARK  status: ('A' for Active; 'I' for Inactive)
REMARK    1  A    between atoms: C6_6  and  C9_9 
REMARK    2  A    between atoms: C7_7  and  O10_10 
REMARK    3  A    between atoms: C8_8  and  C9_9 
ROOT
HETATM    1  C1  UNL     1     -34.259   4.135   4.361  1.00 20.00     0.012 C 
HETATM    2  C2  UNL     1     -34.770   5.204   4.170  1.00 20.00    -0.117 C 
HETATM    3  C8  UNL     1     -35.401   6.511   3.936  1.00 20.00     0.093 C 
ENDROOT
BRANCH   3   4
HETATM    4  C9  UNL     1     -34.424   7.634   4.245  1.00 20.00     0.017 C 
BRANCH   4   5
HETATM    5  C6  UNL     1     -33.188   7.539   3.366  1.00 20.00    -0.011 C 
HETATM    6  C3  UNL     1     -32.155   8.621   3.671  1.00 20.00     0.007 C 
HETATM    7  C4  UNL     1     -31.305   8.639   2.408  1.00 20.00     0.032 C 
HETATM    8  C7  UNL     1     -32.333   8.518   1.288  1.00 20.00     0.118 C 
HETATM    9  C5  UNL     1     -33.494   7.704   1.869  1.00 20.00     0.036 C 
BRANCH   8  10
HETATM   10  O10 UNL     1     -32.815   9.812   0.936  1.00 20.00    -0.396 OA
HETATM   11  H24 UNL     1     -33.461   9.682   0.225  1.00 20.00     0.210 HD
ENDBRANCH   8  10
ENDBRANCH   4   5
ENDBRANCH   3   4
TORSDOF 3
