REMARK  1 active torsions:
REMARK  status: ('A' for Active; 'I' for Inactive)
REMARK    1  A    between atoms: C4_4  and  C8_8 
ROOT
HETATM    1  C1  UNL     1     -35.133   5.146   4.341  1.00 20.00     0.135 A 
HETATM    2  C2  UNL     1     -35.541   6.460   4.289  1.00 20.00     0.136 A 
HETATM    3  C3  UNL     1     -33.175   5.712   3.306  1.00 20.00     0.143 A 
HETATM    4  C4  UNL     1     -33.583   7.027   3.253  1.00 20.00     0.056 A 
HETATM    5  N10 UNL     1     -33.943   4.748   3.850  1.00 20.00    -0.270 NA
HETATM    6  N11 UNL     1     -34.773   7.425   3.745  1.00 20.00    -0.262 NA
ENDROOT
BRANCH   4   7
HETATM    7  C8  UNL     1     -32.693   8.083   2.634  1.00 20.00     0.041 C 
HETATM    8  C5  UNL     1     -31.757   7.639   1.499  1.00 20.00     0.012 C 
HETATM    9  C6  UNL     1     -31.347   8.956   0.858  1.00 20.00     0.021 C 
HETATM   10  C9  UNL     1     -32.666   9.710   0.784  1.00 20.00     0.083 C 
HETATM   11  C7  UNL     1     -33.457   9.283   2.026  1.00 20.00     0.031 C 
HETATM   12 CL12 UNL     1     -32.424  11.463   0.698  1.00 20.00    -0.125 Cl
ENDBRANCH   4   7
TORSDOF 1
