REMARK  1 active torsions:
REMARK  status: ('A' for Active; 'I' for Inactive)
REMARK    1  A    between atoms: C7_7  and  C9_9 
ROOT
HETATM    1  C1  UNL     1     -33.015   9.837  -0.787  1.00 20.00     0.012 C 
HETATM    2  C2  UNL     1     -32.093   9.342  -0.197  1.00 20.00    -0.117 C 
HETATM    3  C9  UNL     1     -30.961   8.746   0.517  1.00 20.00     0.097 C 
ENDROOT
BRANCH   3   4
HETATM    4  C7  UNL     1     -31.421   7.593   1.406  1.00 20.00    -0.002 C 
HETATM    5  C4  UNL     1     -32.036   6.463   0.577  1.00 20.00     0.005 C 
HETATM    6  C3  UNL     1     -32.394   5.253   1.444  1.00 20.00     0.002 C 
HETATM    7  C5  UNL     1     -32.796   5.618   2.876  1.00 20.00     0.020 C 
HETATM    8  C8  UNL     1     -33.396   7.018   2.943  1.00 20.00     0.082 C 
HETATM    9  C6  UNL     1     -32.397   8.090   2.490  1.00 20.00     0.025 C 
HETATM   10 CL10 UNL     1     -33.972   7.372   4.596  1.00 20.00    -0.125 Cl
ENDBRANCH   3   4
TORSDOF 1
