REMARK  3 active torsions:
REMARK  status: ('A' for Active; 'I' for Inactive)
REMARK    1  A    between atoms: C1_1  and  C4_4 
REMARK    2  A    between atoms: C1_1  and  C5_5 
REMARK    3  A    between atoms: C5_5  and  C6_6 
ROOT
HETATM    1  C1  UNL     1     -32.692   6.440   1.428  1.00 20.00     0.139 C 
HETATM    2  O7  UNL     1     -32.145   5.389   1.118  1.00 20.00    -0.297 OA
ENDROOT
BRANCH   1   3
HETATM    3  C4  UNL     1     -31.945   7.728   1.327  1.00 20.00     0.056 A 
HETATM    4  C2  UNL     1     -32.416   8.751   0.347  1.00 20.00     0.013 A 
HETATM    5  C3  UNL     1     -32.604   8.974   1.818  1.00 20.00     0.013 A 
ENDBRANCH   1   3
BRANCH   1   6
HETATM    6  C5  UNL     1     -34.116   6.557   1.924  1.00 20.00     0.196 C 
BRANCH   6   7
HETATM    7  C6  UNL     1     -34.225   6.416   3.424  1.00 20.00     0.394 C 
HETATM    8  F8  UNL     1     -35.505   6.512   3.839  1.00 20.00    -0.171 F 
HETATM    9  F9  UNL     1     -33.502   7.360   4.063  1.00 20.00    -0.171 F 
HETATM   10  F10 UNL     1     -33.757   5.210   3.818  1.00 20.00    -0.171 F 
ENDBRANCH   6   7
ENDBRANCH   1   6
TORSDOF 3
