REMARK  2 active torsions:
REMARK  status: ('A' for Active; 'I' for Inactive)
REMARK    1  A    between atoms: C6_6  and  C7_7 
REMARK    2  A    between atoms: C8_8  and  O9_9 
ROOT
HETATM    1  C3  UNL     1     -31.722   6.719   1.580  1.00 20.00     0.007 C 
HETATM    2  C4  UNL     1     -32.948   5.808   1.647  1.00 20.00     0.032 C 
HETATM    3  C5  UNL     1     -33.362   7.914   2.818  1.00 20.00     0.036 C 
HETATM    4  C7  UNL     1     -32.262   8.134   1.783  1.00 20.00    -0.008 C 
HETATM    5  C8  UNL     1     -34.011   6.589   2.423  1.00 20.00     0.118 C 
ENDROOT
BRANCH   4   6
HETATM    6  C6  UNL     1     -32.793   8.743   0.487  1.00 20.00    -0.010 A 
HETATM    7  C1  UNL     1     -32.997  10.228   0.376  1.00 20.00     0.005 A 
HETATM    8  C2  UNL     1     -31.889   9.563  -0.390  1.00 20.00     0.005 A 
ENDBRANCH   4   6
BRANCH   5   9
HETATM    9  O9  UNL     1     -34.423   5.887   3.584  1.00 20.00    -0.396 OA
HETATM   10  H23 UNL     1     -35.091   6.439   4.019  1.00 20.00     0.210 HD
ENDBRANCH   5   9
TORSDOF 2
