REMARK  2 active torsions:
REMARK  status: ('A' for Active; 'I' for Inactive)
REMARK    1  A    between atoms: C7_7  and  C9_9 
REMARK    2  A    between atoms: C8_8  and  O10_10 
ROOT
HETATM    1  C1  UNL     1     -32.304   9.828  -0.388  1.00 20.00     0.012 C 
HETATM    2  C2  UNL     1     -32.402   9.338   0.704  1.00 20.00    -0.117 C 
HETATM    3  C9  UNL     1     -32.515   8.749   2.041  1.00 20.00     0.097 C 
ENDROOT
BRANCH   3   4
HETATM    4  C7  UNL     1     -33.393   7.499   2.016  1.00 20.00    -0.001 C 
HETATM    5  C4  UNL     1     -32.609   6.297   1.469  1.00 20.00     0.005 C 
HETATM    6  C3  UNL     1     -33.447   5.020   1.483  1.00 20.00     0.003 C 
HETATM    7  C5  UNL     1     -34.004   4.729   2.872  1.00 20.00     0.032 C 
HETATM    8  C8  UNL     1     -34.785   5.920   3.424  1.00 20.00     0.118 C 
HETATM    9  C6  UNL     1     -33.947   7.198   3.414  1.00 20.00     0.037 C 
BRANCH   8  10
HETATM   10  O10 UNL     1     -35.209   5.637   4.753  1.00 20.00    -0.396 OA
HETATM   11  H24 UNL     1     -35.772   4.848   4.703  1.00 20.00     0.210 HD
ENDBRANCH   8  10
ENDBRANCH   3   4
TORSDOF 2
