REMARK  2 active torsions:
REMARK  status: ('A' for Active; 'I' for Inactive)
REMARK    1  A    between atoms: C7_7  and  C10_10 
REMARK    2  A    between atoms: C9_9  and  C10_10 
ROOT
HETATM    1  C2  UNL     1     -32.137   5.791   2.176  1.00 20.00     0.006 C 
HETATM    2  C3  UNL     1     -33.494   5.240   2.627  1.00 20.00     0.020 C 
HETATM    3  C5  UNL     1     -33.411   7.529   3.295  1.00 20.00     0.025 C 
HETATM    4  C7  UNL     1     -32.000   7.179   2.822  1.00 20.00    -0.011 C 
HETATM    5  C8  UNL     1     -33.946   6.177   3.740  1.00 20.00     0.082 C 
HETATM    6 CL12 UNL     1     -35.703   6.181   3.947  1.00 20.00    -0.125 Cl
ENDROOT
BRANCH   4   7
HETATM    7  C10 UNL     1     -31.412   8.221   1.885  1.00 20.00     0.036 C 
BRANCH   7   8
HETATM    8  C9  UNL     1     -32.442   8.745   0.905  1.00 20.00     0.121 C 
HETATM    9  C4  UNL     1     -31.833   9.369  -0.339  1.00 20.00     0.034 C 
HETATM   10  C1  UNL     1     -32.922  10.324  -0.760  1.00 20.00     0.029 C 
HETATM   11  C6  UNL     1     -33.426  10.832   0.575  1.00 20.00     0.168 C 
HETATM   12  O11 UNL     1     -33.228   9.776   1.526  1.00 20.00    -0.386 OA
ENDBRANCH   7   8
ENDBRANCH   4   7
TORSDOF 2
