REMARK  3 active torsions:
REMARK  status: ('A' for Active; 'I' for Inactive)
REMARK    1  A    between atoms: C5_5  and  C9_9 
REMARK    2  A    between atoms: C9_9  and  C11_11 
REMARK    3  A    between atoms: C10_10  and  C11_11 
ROOT
HETATM    1  C1  UNL     1     -34.958   7.303   4.731  1.00 20.00     0.002 C 
HETATM    2  C2  UNL     1     -33.560   7.760   4.309  1.00 20.00     0.005 C 
HETATM    3  C3  UNL     1     -35.600   6.304   3.764  1.00 20.00     0.020 C 
HETATM    4  C4  UNL     1     -33.539   6.223   2.284  1.00 20.00     0.024 C 
HETATM    5  C5  UNL     1     -33.355   7.665   2.796  1.00 20.00    -0.013 C 
HETATM    6  C6  UNL     1     -34.586   5.409   3.057  1.00 20.00     0.082 C 
HETATM    7 CL12 UNL     1     -33.785   4.330   4.249  1.00 20.00    -0.125 Cl
ENDROOT
BRANCH   5   8
HETATM    8  C9  UNL     1     -31.988   8.213   2.389  1.00 20.00     0.009 C 
BRANCH   8   9
HETATM    9  C11 UNL     1     -31.730   8.170   0.871  1.00 20.00    -0.019 C 
HETATM   10  C8  UNL     1     -30.340   8.706   0.517  1.00 20.00     0.010 C 
BRANCH   9  11
HETATM   11  C10 UNL     1     -32.844   8.966   0.158  1.00 20.00    -0.000 C 
HETATM   12  C7  UNL     1     -32.880  10.443   0.529  1.00 20.00     0.005 C 
ENDBRANCH   9  11
ENDBRANCH   8   9
ENDBRANCH   5   8
TORSDOF 3
