REMARK  2 active torsions:
REMARK  status: ('A' for Active; 'I' for Inactive)
REMARK    1  A    between atoms: C7_7  and  C10_10 
REMARK    2  A    between atoms: C9_9  and  C10_10 
ROOT
HETATM    1  C1  UNL     1     -33.210  10.331  -0.500  1.00 20.00     0.012 C 
HETATM    2  C2  UNL     1     -32.282   9.746  -0.013  1.00 20.00    -0.117 C 
HETATM    3  C9  UNL     1     -31.144   9.035   0.585  1.00 20.00     0.093 C 
ENDROOT
BRANCH   3   4
HETATM    4  C10 UNL     1     -31.434   7.547   0.650  1.00 20.00     0.017 C 
BRANCH   4   5
HETATM    5  C7  UNL     1     -32.681   7.275   1.488  1.00 20.00    -0.012 C 
HETATM    6  C4  UNL     1     -32.958   5.774   1.601  1.00 20.00     0.005 C 
HETATM    7  C3  UNL     1     -34.271   5.494   2.339  1.00 20.00     0.002 C 
HETATM    8  C5  UNL     1     -34.612   6.538   3.406  1.00 20.00     0.020 C 
HETATM    9  C8  UNL     1     -33.354   7.193   3.965  1.00 20.00     0.082 C 
HETATM   10  C6  UNL     1     -32.563   7.932   2.877  1.00 20.00     0.024 C 
HETATM   11 CL11 UNL     1     -33.770   8.313   5.292  1.00 20.00    -0.125 Cl
ENDBRANCH   4   5
ENDBRANCH   3   4
TORSDOF 2
