REMARK  1 active torsions:
REMARK  status: ('A' for Active; 'I' for Inactive)
REMARK    1  A    between atoms: C4_4  and  C8_8 
ROOT
HETATM    1  C1  UNL     1     -35.005   6.280   3.956  1.00 20.00     0.006 C 
HETATM    2  C2  UNL     1     -34.936   4.936   4.687  1.00 20.00     0.020 C 
HETATM    3  C3  UNL     1     -32.761   5.363   3.805  1.00 20.00     0.025 C 
HETATM    4  C4  UNL     1     -33.678   6.423   3.193  1.00 20.00    -0.010 C 
HETATM    5  C5  UNL     1     -33.730   4.225   4.088  1.00 20.00     0.082 C 
HETATM    6 CL9  UNL     1     -33.047   3.014   5.182  1.00 20.00    -0.125 Cl
ENDROOT
BRANCH   4   7
HETATM    7  C8  UNL     1     -33.095   7.824   3.261  1.00 20.00    -0.019 C 
HETATM    8  C6  UNL     1     -32.851   8.239   4.712  1.00 20.00     0.010 C 
HETATM    9  C7  UNL     1     -31.798   7.910   2.457  1.00 20.00     0.010 C 
ENDBRANCH   4   7
TORSDOF 1
