REMARK  2 active torsions:
REMARK  status: ('A' for Active; 'I' for Inactive)
REMARK    1  A    between atoms: C8_8  and  C10_10 
REMARK    2  A    between atoms: C9_9  and  C10_10 
ROOT
HETATM    1  C1  UNL     1     -33.122  10.177  -0.247  1.00 20.00     0.012 C 
HETATM    2  C2  UNL     1     -32.156   9.593   0.160  1.00 20.00    -0.117 C 
HETATM    3  C9  UNL     1     -30.971   8.879   0.655  1.00 20.00     0.093 C 
ENDROOT
BRANCH   3   4
HETATM    4  C10 UNL     1     -31.240   8.310   2.035  1.00 20.00     0.017 C 
BRANCH   4   5
HETATM    5  C8  UNL     1     -32.407   7.325   1.997  1.00 20.00    -0.007 C 
HETATM    6  C5  UNL     1     -33.025   7.172   3.389  1.00 20.00     0.082 C 
HETATM    7  C3  UNL     1     -34.110   6.118   3.378  1.00 20.00     0.127 C 
HETATM    8  C4  UNL     1     -33.747   4.783   2.769  1.00 20.00     0.078 C 
HETATM    9  O11 UNL     1     -35.195   6.302   3.928  1.00 20.00    -0.298 OA
HETATM   10  C6  UNL     1     -33.115   4.977   1.398  1.00 20.00     0.008 C 
HETATM   11  C7  UNL     1     -31.952   5.967   1.444  1.00 20.00     0.005 C 
ENDBRANCH   4   5
ENDBRANCH   3   4
TORSDOF 2
