REMARK  1 active torsions:
REMARK  status: ('A' for Active; 'I' for Inactive)
REMARK    1  A    between atoms: C8_8  and  C10_10 
ROOT
HETATM    1  C1  UNL     1     -32.640   9.367   0.883  1.00 20.00     0.012 C 
HETATM    2  C2  UNL     1     -32.389   8.235   1.196  1.00 20.00    -0.117 C 
HETATM    3  C10 UNL     1     -32.065   6.859   1.570  1.00 20.00     0.097 C 
ENDROOT
BRANCH   3   4
HETATM    4  C8  UNL     1     -33.269   6.178   2.233  1.00 20.00    -0.002 C 
HETATM    5  C5  UNL     1     -34.015   7.195   3.111  1.00 20.00     0.005 C 
HETATM    6  C3  UNL     1     -35.404   6.717   3.524  1.00 20.00     0.000 C 
HETATM    7  C4  UNL     1     -35.450   5.890   4.804  1.00 20.00     0.001 C 
HETATM    8  C6  UNL     1     -34.339   4.864   5.012  1.00 20.00     0.016 C 
HETATM    9  C9  UNL     1     -33.877   4.159   3.739  1.00 20.00     0.058 C 
HETATM   10  C7  UNL     1     -32.789   4.925   2.982  1.00 20.00     0.021 C 
HETATM   11 BR11 UNL     1     -33.095   2.420   4.271  1.00 20.00    -0.091 Br
ENDBRANCH   3   4
TORSDOF 1
