REMARK  5 active torsions:
REMARK  status: ('A' for Active; 'I' for Inactive)
REMARK    1  A    between atoms: C6_6  and  C7_7 
REMARK    2  A    between atoms: C7_7  and  C8_8 
REMARK    3  A    between atoms: C8_8  and  C9_9 
REMARK    4  A    between atoms: C9_9  and  C10_10 
REMARK    5  A    between atoms: C10_10  and  C11_11 
ROOT
HETATM    1  C1  UNL     1     -33.627   3.642   4.195  1.00 20.00     0.012 C 
HETATM    2  C2  UNL     1     -34.351   4.586   4.030  1.00 20.00    -0.117 C 
HETATM    3  C6  UNL     1     -35.241   5.738   3.825  1.00 20.00     0.093 C 
ENDROOT
BRANCH   3   4
HETATM    4  C7  UNL     1     -34.729   6.998   4.525  1.00 20.00     0.012 C 
BRANCH   4   5
HETATM    5  C8  UNL     1     -33.376   7.475   3.980  1.00 20.00     0.002 C 
BRANCH   5   6
HETATM    6  C9  UNL     1     -33.481   7.846   2.492  1.00 20.00     0.021 C 
BRANCH   6   7
HETATM    7  C10 UNL     1     -32.168   8.410   1.907  1.00 20.00     0.089 C 
HETATM    8 CL12 UNL     1     -30.988   7.060   1.706  1.00 20.00    -0.124 Cl
BRANCH   7   9
HETATM    9  C11 UNL     1     -32.339   9.226   0.578  1.00 20.00    -0.035 C 
HETATM   10  C3  UNL     1     -30.965   9.723   0.077  1.00 20.00     0.016 C 
HETATM   11  C4  UNL     1     -32.926   8.328  -0.535  1.00 20.00     0.016 C 
HETATM   12  C5  UNL     1     -33.258  10.451   0.752  1.00 20.00     0.016 C 
ENDBRANCH   7   9
ENDBRANCH   6   7
ENDBRANCH   5   6
ENDBRANCH   4   5
ENDBRANCH   3   4
TORSDOF 5
