REMARK  6 active torsions:
REMARK  status: ('A' for Active; 'I' for Inactive)
REMARK    1  A    between atoms: C3_3  and  C10_10 
REMARK    2  A    between atoms: C6_6  and  C11_11 
REMARK    3  A    between atoms: C7_7  and  C8_8 
REMARK    4  A    between atoms: C7_7  and  C9_9 
REMARK    5  A    between atoms: C8_8  and  C10_10 
REMARK    6  A    between atoms: C9_9  and  C11_11 
ROOT
HETATM    1  C7  UNL     1     -33.236   6.726   1.275  1.00 20.00     0.002 C 
ENDROOT
BRANCH   1   2
HETATM    2  C8  UNL     1     -33.565   5.416   2.004  1.00 20.00     0.020 C 
BRANCH   2   3
HETATM    3  C10 UNL     1     -33.929   5.558   3.489  1.00 20.00     0.086 C 
HETATM    4 CL12 UNL     1     -35.247   6.740   3.732  1.00 20.00    -0.125 Cl
BRANCH   3   5
HETATM    5  C3  UNL     1     -34.305   4.260   4.141  1.00 20.00     0.004 A 
HETATM    6  C1  UNL     1     -33.238   3.302   4.593  1.00 20.00     0.006 A 
HETATM    7  C2  UNL     1     -34.056   4.050   5.608  1.00 20.00     0.006 A 
ENDBRANCH   3   5
ENDBRANCH   2   3
ENDBRANCH   1   2
BRANCH   1   8
HETATM    8  C9  UNL     1     -31.999   7.397   1.883  1.00 20.00     0.004 C 
BRANCH   8   9
HETATM    9  C11 UNL     1     -31.559   8.672   1.138  1.00 20.00    -0.019 C 
HETATM   10  C5  UNL     1     -30.838   8.289  -0.159  1.00 20.00     0.010 C 
BRANCH   9  11
HETATM   11  C6  UNL     1     -32.698   9.676   0.869  1.00 20.00    -0.000 C 
HETATM   12  C4  UNL     1     -32.283  10.956   0.157  1.00 20.00     0.005 C 
ENDBRANCH   9  11
ENDBRANCH   8   9
ENDBRANCH   1   8
TORSDOF 6
