REMARK  2 active torsions:
REMARK  status: ('A' for Active; 'I' for Inactive)
REMARK    1  A    between atoms: C4_4  and  C10_10 
REMARK    2  A    between atoms: C8_8  and  C10_10 
ROOT
HETATM    1  C5  UNL     1     -33.554   7.430   3.117  1.00 20.00     0.006 C 
HETATM    2  C6  UNL     1     -34.267   6.414   3.997  1.00 20.00     0.020 C 
HETATM    3  C7  UNL     1     -32.818   5.164   2.538  1.00 20.00     0.025 C 
HETATM    4  C8  UNL     1     -32.971   6.589   1.974  1.00 20.00    -0.009 C 
HETATM    5  C9  UNL     1     -33.291   5.248   3.988  1.00 20.00     0.082 C 
HETATM    6 CL12 UNL     1     -34.034   3.744   4.550  1.00 20.00    -0.125 Cl
ENDROOT
BRANCH   4   7
HETATM    7  C10 UNL     1     -31.667   7.161   1.439  1.00 20.00     0.043 C 
BRANCH   7   8
HETATM    8  C4  UNL     1     -31.904   8.311   0.496  1.00 20.00    -0.051 A 
HETATM    9  C1  UNL     1     -32.611   9.495   0.850  1.00 20.00     0.014 A 
HETATM   10  C2  UNL     1     -32.686  10.387  -0.198  1.00 20.00     0.050 A 
HETATM   11  S11 UNL     1     -31.904   9.794  -1.602  1.00 20.00    -0.113 SA
HETATM   12  C3  UNL     1     -31.464   8.341  -0.809  1.00 20.00     0.056 A 
ENDBRANCH   7   8
ENDBRANCH   4   7
TORSDOF 2
