REMARK  2 active torsions:
REMARK  status: ('A' for Active; 'I' for Inactive)
REMARK    1  A    between atoms: C2_2  and  C10_10 
REMARK    2  A    between atoms: C7_7  and  C10_10 
ROOT
HETATM    1  C1  UNL     1     -33.376   3.877   4.427  1.00 20.00    -0.111 C 
HETATM    2  C2  UNL     1     -33.751   4.908   3.939  1.00 20.00    -0.107 C 
HETATM    3  C9  UNL     1     -32.918   2.621   5.020  1.00 20.00     0.112 C 
ENDROOT
BRANCH   2   4
HETATM    4  C10 UNL     1     -34.219   6.165   3.350  1.00 20.00     0.098 C 
BRANCH   4   5
HETATM    5  C7  UNL     1     -33.195   6.722   2.364  1.00 20.00    -0.002 C 
HETATM    6  C4  UNL     1     -33.271   5.976   1.024  1.00 20.00     0.005 C 
HETATM    7  C3  UNL     1     -32.292   6.548   0.002  1.00 20.00     0.002 C 
HETATM    8  C5  UNL     1     -32.494   8.049  -0.192  1.00 20.00     0.020 C 
HETATM    9  C8  UNL     1     -32.411   8.793   1.140  1.00 20.00     0.082 C 
HETATM   10  C6  UNL     1     -33.400   8.231   2.162  1.00 20.00     0.025 C 
HETATM   11 CL11 UNL     1     -32.727  10.533   0.884  1.00 20.00    -0.125 Cl
ENDBRANCH   4   5
ENDBRANCH   2   4
TORSDOF 2
