REMARK  1 active torsions:
REMARK  status: ('A' for Active; 'I' for Inactive)
REMARK    1  A    between atoms: C7_7  and  C9_9 
ROOT
HETATM    1  C1  UNL     1     -32.520   9.497   0.058  1.00 20.00     0.012 C 
HETATM    2  C2  UNL     1     -32.250   8.649   0.864  1.00 20.00    -0.117 C 
HETATM    3  C9  UNL     1     -31.910   7.618   1.849  1.00 20.00     0.097 C 
ENDROOT
BRANCH   3   4
HETATM    4  C7  UNL     1     -33.127   6.756   2.182  1.00 20.00    -0.002 C 
HETATM    5  C4  UNL     1     -34.058   7.489   3.158  1.00 20.00     0.005 C 
HETATM    6  C3  UNL     1     -35.257   6.629   3.548  1.00 20.00     0.002 C 
HETATM    7  C5  UNL     1     -34.823   5.279   4.112  1.00 20.00     0.020 C 
HETATM    8  C8  UNL     1     -33.900   4.545   3.139  1.00 20.00     0.082 C 
HETATM    9  C6  UNL     1     -32.690   5.400   2.757  1.00 20.00     0.025 C 
HETATM   10 CL10 UNL     1     -33.351   3.008   3.866  1.00 20.00    -0.125 Cl
ENDBRANCH   3   4
TORSDOF 1
