REMARK  1 active torsions:
REMARK  status: ('A' for Active; 'I' for Inactive)
REMARK    1  A    between atoms: C8_8  and  C9_9 
ROOT
HETATM    1  C1  UNL     1     -31.913   9.886  -0.563  1.00 20.00     0.012 C 
HETATM    2  C2  UNL     1     -32.488   9.509   0.421  1.00 20.00    -0.117 C 
HETATM    3  C9  UNL     1     -33.200   9.056   1.620  1.00 20.00     0.098 C 
ENDROOT
BRANCH   3   4
HETATM    4  C8  UNL     1     -32.318   8.134   2.467  1.00 20.00     0.004 C 
HETATM    5  C5  UNL     1     -33.036   7.707   3.750  1.00 20.00     0.083 C 
HETATM    6  C3  UNL     1     -34.093   6.661   3.473  1.00 20.00     0.127 C 
HETATM    7  C4  UNL     1     -33.662   5.467   2.652  1.00 20.00     0.078 C 
HETATM    8  O10 UNL     1     -35.215   6.730   3.972  1.00 20.00    -0.298 OA
HETATM    9  C6  UNL     1     -32.960   5.915   1.379  1.00 20.00     0.008 C 
HETATM   10  C7  UNL     1     -31.837   6.911   1.670  1.00 20.00     0.006 C 
ENDBRANCH   3   4
TORSDOF 1
