REMARK  1 active torsions:
REMARK  status: ('A' for Active; 'I' for Inactive)
REMARK    1  A    between atoms: C6_6  and  C7_7 
ROOT
HETATM    1  C1  UNL     1     -34.429   5.266   3.861  1.00 20.00     0.002 C 
HETATM    2  C2  UNL     1     -33.232   5.575   2.957  1.00 20.00     0.006 C 
HETATM    3  C5  UNL     1     -35.182   6.586   4.039  1.00 20.00     0.020 C 
HETATM    4  C7  UNL     1     -33.380   7.049   2.568  1.00 20.00     0.008 C 
HETATM    5  C8  UNL     1     -34.150   7.670   3.740  1.00 20.00     0.086 C 
HETATM    6 CL9  UNL     1     -33.136   7.957   5.186  1.00 20.00    -0.125 Cl
ENDROOT
BRANCH   4   7
HETATM    7  C6  UNL     1     -32.086   7.712   2.211  1.00 20.00    -0.009 A 
HETATM    8  C3  UNL     1     -31.537   7.601   0.816  1.00 20.00     0.005 A 
HETATM    9  C4  UNL     1     -32.075   8.915   1.310  1.00 20.00     0.005 A 
ENDBRANCH   4   7
TORSDOF 1
