REMARK  2 active torsions:
REMARK  status: ('A' for Active; 'I' for Inactive)
REMARK    1  A    between atoms: C6_6  and  C9_9 
REMARK    2  A    between atoms: C8_8  and  C9_9 
ROOT
HETATM    1  C1  UNL     1     -33.060  10.209  -0.132  1.00 20.00     0.012 C 
HETATM    2  C2  UNL     1     -32.264   9.374   0.200  1.00 20.00    -0.117 C 
HETATM    3  C8  UNL     1     -31.288   8.352   0.602  1.00 20.00     0.093 C 
ENDROOT
BRANCH   3   4
HETATM    4  C9  UNL     1     -31.460   8.004   2.071  1.00 20.00     0.017 C 
BRANCH   4   5
HETATM    5  C6  UNL     1     -32.855   7.462   2.344  1.00 20.00    -0.012 C 
HETATM    6  C3  UNL     1     -33.155   6.161   1.581  1.00 20.00     0.006 C 
HETATM    7  C4  UNL     1     -33.697   5.173   2.616  1.00 20.00     0.020 C 
HETATM    8  C7  UNL     1     -34.131   6.023   3.804  1.00 20.00     0.082 C 
HETATM    9  C5  UNL     1     -33.078   7.125   3.822  1.00 20.00     0.024 C 
HETATM   10 CL10 UNL     1     -35.763   6.699   3.538  1.00 20.00    -0.125 Cl
ENDBRANCH   4   5
ENDBRANCH   3   4
TORSDOF 2
