REMARK  2 active torsions:
REMARK  status: ('A' for Active; 'I' for Inactive)
REMARK    1  A    between atoms: C2_2  and  C9_9 
REMARK    2  A    between atoms: C7_7  and  C9_9 
ROOT
HETATM    1  C1  UNL     1     -34.023   3.867   4.400  1.00 20.00    -0.111 C 
HETATM    2  C2  UNL     1     -34.659   4.862   4.183  1.00 20.00    -0.107 C 
HETATM    3  C8  UNL     1     -33.248   2.655   4.664  1.00 20.00     0.112 C 
ENDROOT
BRANCH   2   4
HETATM    4  C9  UNL     1     -35.439   6.077   3.919  1.00 20.00     0.099 C 
BRANCH   4   5
HETATM    5  C7  UNL     1     -34.572   7.169   3.316  1.00 20.00     0.004 C 
HETATM    6  C5  UNL     1     -33.907   6.746   2.005  1.00 20.00     0.083 C 
HETATM    7  C3  UNL     1     -32.692   7.637   1.976  1.00 20.00     0.127 C 
HETATM    8  C4  UNL     1     -32.454   8.324   3.296  1.00 20.00     0.079 C 
HETATM    9  O10 UNL     1     -31.980   7.788   0.991  1.00 20.00    -0.298 OA
HETATM   10  C6  UNL     1     -33.399   7.560   4.217  1.00 20.00     0.013 C 
ENDBRANCH   4   5
ENDBRANCH   2   4
TORSDOF 2
