REMARK  2 active torsions:
REMARK  status: ('A' for Active; 'I' for Inactive)
REMARK    1  A    between atoms: C8_8  and  C10_10 
REMARK    2  A    between atoms: C9_9  and  O11_11 
ROOT
HETATM    1  C1  UNL     1     -32.950  10.481   0.280  1.00 20.00     0.012 C 
HETATM    2  C2  UNL     1     -32.461   9.385   0.307  1.00 20.00    -0.117 C 
HETATM    3  C10 UNL     1     -31.864   8.050   0.322  1.00 20.00     0.097 C 
ENDROOT
BRANCH   3   4
HETATM    4  C8  UNL     1     -31.764   7.516   1.753  1.00 20.00    -0.001 C 
HETATM    5  C5  UNL     1     -31.516   6.000   1.777  1.00 20.00     0.005 C 
HETATM    6  C3  UNL     1     -32.660   5.115   1.293  1.00 20.00     0.000 C 
HETATM    7  C4  UNL     1     -34.045   5.433   1.847  1.00 20.00     0.002 C 
HETATM    8  C6  UNL     1     -34.094   5.800   3.330  1.00 20.00     0.032 C 
HETATM    9  C9  UNL     1     -33.360   7.087   3.748  1.00 20.00     0.118 C 
HETATM   10  C7  UNL     1     -32.958   8.009   2.595  1.00 20.00     0.037 C 
BRANCH   9  11
HETATM   11  O11 UNL     1     -34.230   7.806   4.627  1.00 20.00    -0.396 OA
HETATM   12  H27 UNL     1     -34.396   7.220   5.379  1.00 20.00     0.210 HD
ENDBRANCH   9  11
ENDBRANCH   3   4
TORSDOF 2
