REMARK  1 active torsions:
REMARK  status: ('A' for Active; 'I' for Inactive)
REMARK    1  A    between atoms: C6_6  and  C8_8 
ROOT
HETATM    1  C1  UNL     1     -34.639   6.214   3.522  1.00 20.00     0.064 C 
HETATM    2  C2  UNL     1     -33.178   5.838   1.546  1.00 20.00     0.019 C 
HETATM    3  C3  UNL     1     -33.188   7.022   0.587  1.00 20.00     0.006 C 
HETATM    4  C4  UNL     1     -33.034   7.954   2.779  1.00 20.00     0.024 C 
HETATM    5  C5  UNL     1     -33.306   6.451   2.949  1.00 20.00     0.093 C 
HETATM    6  C6  UNL     1     -32.453   8.102   1.372  1.00 20.00    -0.014 C 
HETATM    7  N9  UNL     1     -35.691   6.027   3.974  1.00 20.00    -0.197 NA
ENDROOT
BRANCH   6   8
HETATM    8  C8  UNL     1     -32.636   9.493   0.790  1.00 20.00     0.000 C 
HETATM    9  C7  UNL     1     -32.093   9.595  -0.601  1.00 20.00     0.005 C 
ENDBRANCH   6   8
TORSDOF 1
