REMARK  2 active torsions:
REMARK  status: ('A' for Active; 'I' for Inactive)
REMARK    1  A    between atoms: C9_9  and  C11_11 
REMARK    2  A    between atoms: C10_10  and  C11_11 
ROOT
HETATM    1  C1  UNL     1     -33.199  10.120  -0.489  1.00 20.00     0.012 C 
HETATM    2  C2  UNL     1     -32.444   9.660   0.322  1.00 20.00    -0.117 C 
HETATM    3  C10 UNL     1     -31.519   9.101   1.317  1.00 20.00     0.093 C 
ENDROOT
BRANCH   3   4
HETATM    4  C11 UNL     1     -31.470   7.593   1.189  1.00 20.00     0.017 C 
BRANCH   4   5
HETATM    5  C9  UNL     1     -32.862   6.991   1.397  1.00 20.00    -0.007 C 
HETATM    6  C5  UNL     1     -33.406   7.386   2.777  1.00 20.00     0.082 C 
HETATM    7  C3  UNL     1     -34.398   6.393   3.342  1.00 20.00     0.127 C 
HETATM    8  C4  UNL     1     -33.883   5.061   3.862  1.00 20.00     0.078 C 
HETATM    9  O12 UNL     1     -35.599   6.663   3.401  1.00 20.00    -0.298 OA
HETATM   10  C6  UNL     1     -32.417   4.777   3.553  1.00 20.00     0.007 C 
HETATM   11  C7  UNL     1     -32.108   4.583   2.068  1.00 20.00     0.001 C 
HETATM   12  C8  UNL     1     -32.870   5.482   1.094  1.00 20.00     0.005 C 
ENDBRANCH   4   5
ENDBRANCH   3   4
TORSDOF 2
