REMARK  3 active torsions:
REMARK  status: ('A' for Active; 'I' for Inactive)
REMARK    1  A    between atoms: C1_1  and  C3_3 
REMARK    2  A    between atoms: C2_2  and  C7_7 
REMARK    3  A    between atoms: C7_7  and  C8_8 
ROOT
HETATM    1  C1  UNL     1     -32.300   8.636   0.846  1.00 20.00     0.005 C 
HETATM    2  C2  UNL     1     -32.394   7.592   1.432  1.00 20.00    -0.090 C 
ENDROOT
BRANCH   2   3
HETATM    3  C7  UNL     1     -32.505   6.310   2.156  1.00 20.00     0.065 C 
HETATM    4  C4  UNL     1     -32.160   5.152   1.215  1.00 20.00     0.024 C 
BRANCH   3   5
HETATM    5  C8  UNL     1     -33.892   6.118   2.824  1.00 20.00    -0.007 C 
HETATM    6  C5  UNL     1     -34.056   4.779   3.553  1.00 20.00     0.011 C 
HETATM    7  C6  UNL     1     -34.222   7.272   3.779  1.00 20.00     0.011 C 
ENDBRANCH   3   5
ENDBRANCH   2   3
BRANCH   1   8
HETATM    8  C3  UNL     1     -32.181   9.973   0.090  1.00 20.00     0.258 C 
HETATM    9  O9  UNL     1     -31.597   9.924  -1.031  1.00 20.00    -0.637 OA
HETATM   10  O10 UNL     1     -32.680  10.982   0.668  1.00 20.00    -0.637 OA
ENDBRANCH   1   8
TORSDOF 3
