REMARK  0 active torsions:
REMARK  status: ('A' for Active; 'I' for Inactive)
ROOT
HETATM    1  C1  UNL     1     -35.052   6.231   4.194  1.00 20.00     0.088 C 
HETATM    2  C2  UNL     1     -33.324   6.984   2.695  1.00 20.00    -0.044 C 
HETATM    3  C3  UNL     1     -34.118   7.202   3.747  1.00 20.00     0.098 C 
HETATM    4  C4  UNL     1     -32.316   7.935   2.151  1.00 20.00     0.063 C 
HETATM    5  C5  UNL     1     -33.239   5.712   1.921  1.00 20.00     0.202 C 
HETATM    6  C6  UNL     1     -31.349   6.967   1.501  1.00 20.00     0.172 C 
HETATM    7  N7  UNL     1     -35.817   5.439   4.563  1.00 20.00    -0.192 NA
HETATM    8  O8  UNL     1     -32.161   5.902   0.986  1.00 20.00    -0.387 OA
ENDROOT
TORSDOF 0
