REMARK  4 active torsions:
REMARK  status: ('A' for Active; 'I' for Inactive)
REMARK    1  A    between atoms: C4_4  and  C7_7 
REMARK    2  A    between atoms: C8_8  and  C10_10 
REMARK    3  A    between atoms: C9_9  and  C10_10 
REMARK    4  A    between atoms: C9_9  and  N11_11 
ROOT
HETATM    1  C1  UNL     1     -34.405   5.574   4.050  1.00 20.00     0.035 C 
HETATM    2  C2  UNL     1     -33.817   6.967   4.151  1.00 20.00     0.235 C 
HETATM    3  C3  UNL     1     -33.118   5.893   2.060  1.00 20.00     0.240 C 
HETATM    4  C4  UNL     1     -33.453   4.841   3.113  1.00 20.00     0.027 C 
HETATM    5  N11 UNL     1     -33.283   7.232   2.760  1.00 20.00    -0.070 N 
HETATM    6  H33 UNL     1     -34.018   7.747   2.253  1.00 20.00     0.279 HD
ENDROOT
BRANCH   5   7
HETATM    7  C9  UNL     1     -32.059   8.091   2.740  1.00 20.00     0.239 C 
BRANCH   7   8
HETATM    8  C10 UNL     1     -31.808   8.703   1.355  1.00 20.00     0.007 C 
HETATM    9  C6  UNL     1     -30.357   9.176   1.205  1.00 20.00     0.011 C 
BRANCH   8  10
HETATM   10  C8  UNL     1     -32.767   9.849   0.976  1.00 20.00     0.001 C 
HETATM   11  C5  UNL     1     -32.528  10.412  -0.417  1.00 20.00     0.005 C 
ENDBRANCH   8  10
ENDBRANCH   7   8
ENDBRANCH   5   7
BRANCH   4  12
HETATM   12  C7  UNL     1     -32.204   4.332   3.832  1.00 20.00     0.121 C 
HETATM   13 CL12 UNL     1     -32.563   2.830   4.707  1.00 20.00    -0.130 Cl
ENDBRANCH   4  12
TORSDOF 4
