REMARK  3 active torsions:
REMARK  status: ('A' for Active; 'I' for Inactive)
REMARK    1  A    between atoms: C2_2  and  C8_8 
REMARK    2  A    between atoms: C7_7  and  C9_9 
REMARK    3  A    between atoms: C8_8  and  N10_10 
ROOT
HETATM    1  C3  UNL     1     -33.860   7.358   4.039  1.00 20.00     0.031 C 
HETATM    2  C4  UNL     1     -34.449   6.243   3.182  1.00 20.00     0.009 C 
HETATM    3  C5  UNL     1     -33.243   8.457   3.174  1.00 20.00     0.272 C 
HETATM    4  C6  UNL     1     -32.805   6.887   1.378  1.00 20.00     0.278 C 
HETATM    5  C7  UNL     1     -33.407   5.725   2.185  1.00 20.00     0.028 C 
HETATM    6  N10 UNL     1     -32.228   7.908   2.266  1.00 20.00     0.092 N 
ENDROOT
BRANCH   6   7
HETATM    7  C8  UNL     1     -31.610   8.977   1.483  1.00 20.00     0.299 C 
BRANCH   7   8
HETATM    8  C2  UNL     1     -32.670   9.661   0.684  1.00 20.00    -0.007 C 
HETATM    9  C1  UNL     1     -32.660   9.746  -0.651  1.00 20.00     0.008 C 
ENDBRANCH   7   8
ENDBRANCH   6   7
BRANCH   5  10
HETATM   10  C9  UNL     1     -34.023   4.681   1.255  1.00 20.00     0.121 C 
HETATM   11 CL11 UNL     1     -32.809   4.100   0.102  1.00 20.00    -0.130 Cl
ENDBRANCH   5  10
TORSDOF 3
