REMARK  1 active torsions:
REMARK  status: ('A' for Active; 'I' for Inactive)
REMARK    1  A    between atoms: C3_3  and  N9_9 
ROOT
HETATM    1  C4  UNL     1     -34.827   5.109   4.665  1.00 20.00     0.041 C 
HETATM    2  C5  UNL     1     -34.849   6.231   3.627  1.00 20.00     0.126 C 
HETATM    3  C6  UNL     1     -32.855   4.891   3.329  1.00 20.00     0.145 C 
HETATM    4  C7  UNL     1     -33.944   4.060   4.006  1.00 20.00     0.102 C 
HETATM    5  N9  UNL     1     -33.551   6.124   2.963  1.00 20.00    -0.358 N 
HETATM    6 CL11 UNL     1     -33.289   2.901   5.170  1.00 20.00    -0.123 Cl
ENDROOT
BRANCH   5   7
HETATM    7  C3  UNL     1     -33.040   7.078   2.109  1.00 20.00     0.168 A 
HETATM    8  N8  UNL     1     -31.873   6.986   1.510  1.00 20.00    -0.236 NA
HETATM    9  C1  UNL     1     -31.679   8.113   0.735  1.00 20.00     0.126 A 
HETATM   10  C2  UNL     1     -32.698   9.042   0.758  1.00 20.00     0.072 A 
HETATM   11  S10 UNL     1     -33.956   8.492   1.786  1.00 20.00    -0.063 SA
ENDBRANCH   5   7
TORSDOF 1
