REMARK  3 active torsions:
REMARK  status: ('A' for Active; 'I' for Inactive)
REMARK    1  A    between atoms: C4_4  and  C6_6 
REMARK    2  A    between atoms: C7_7  and  C8_8 
REMARK    3  A    between atoms: C8_8  and  N9_9 
ROOT
HETATM    1  C1  UNL     1     -32.143   5.467   0.845  1.00 20.00     0.032 C 
HETATM    2  C2  UNL     1     -32.993   5.860   2.048  1.00 20.00     0.038 C 
HETATM    3  C3  UNL     1     -31.610   6.777   0.289  1.00 20.00     0.273 C 
HETATM    4  C4  UNL     1     -32.899   7.385   2.128  1.00 20.00     0.236 C 
HETATM    5  N9  UNL     1     -31.625   7.667   1.452  1.00 20.00     0.094 N 
ENDROOT
BRANCH   5   6
HETATM    6  C8  UNL     1     -31.477   9.063   1.058  1.00 20.00     0.272 C 
BRANCH   6   7
HETATM    7  C7  UNL     1     -32.605   9.532   0.148  1.00 20.00     0.026 C 
HETATM    8  C5  UNL     1     -32.447  10.982  -0.285  1.00 20.00     0.007 C 
ENDBRANCH   6   7
ENDBRANCH   5   6
BRANCH   4   9
HETATM    9  C6  UNL     1     -32.941   7.879   3.569  1.00 20.00     0.150 C 
HETATM   10 CL10 UNL     1     -34.464   7.395   4.339  1.00 20.00    -0.128 Cl
ENDBRANCH   4   9
TORSDOF 3
