REMARK  2 active torsions:
REMARK  status: ('A' for Active; 'I' for Inactive)
REMARK    1  A    between atoms: C3_3  and  C6_6 
REMARK    2  A    between atoms: C5_5  and  C6_6 
ROOT
HETATM    1  C6  UNL     1     -33.159   6.631   2.205  1.00 20.00     0.086 C 
HETATM    2 CL7  UNL     1     -31.913   7.915   2.254  1.00 20.00    -0.125 Cl
ENDROOT
BRANCH   1   3
HETATM    3  C3  UNL     1     -33.648   6.394   3.605  1.00 20.00     0.004 A 
HETATM    4  C1  UNL     1     -34.589   7.371   4.254  1.00 20.00     0.006 A 
HETATM    5  C2  UNL     1     -35.080   6.008   3.851  1.00 20.00     0.006 A 
ENDBRANCH   1   3
BRANCH   1   6
HETATM    6  C5  UNL     1     -32.602   5.347   1.580  1.00 20.00     0.016 C 
HETATM    7  C4  UNL     1     -32.070   5.542   0.166  1.00 20.00     0.006 C 
ENDBRANCH   1   6
TORSDOF 2
