REMARK  3 active torsions:
REMARK  status: ('A' for Active; 'I' for Inactive)
REMARK    1  A    between atoms: C6_6  and  C7_7 
REMARK    2  A    between atoms: C7_7  and  C8_8 
REMARK    3  A    between atoms: C8_8  and  N9_9 
ROOT
HETATM    1  C1  UNL     1     -33.296   5.685   2.362  1.00 20.00     0.052 C 
HETATM    2  C2  UNL     1     -32.060   6.479   1.944  1.00 20.00     0.274 C 
HETATM    3  C3  UNL     1     -33.134   7.772   3.553  1.00 20.00     0.292 C 
HETATM    4  C4  UNL     1     -34.095   6.633   3.247  1.00 20.00     0.112 C 
HETATM    5  N9  UNL     1     -32.281   7.873   2.359  1.00 20.00     0.089 N 
HETATM    6 CL10 UNL     1     -34.691   5.850   4.721  1.00 20.00    -0.123 Cl
ENDROOT
BRANCH   5   7
HETATM    7  C8  UNL     1     -32.921   8.649   1.296  1.00 20.00     0.272 C 
BRANCH   7   8
HETATM    8  C7  UNL     1     -31.919   9.170   0.271  1.00 20.00     0.030 C 
BRANCH   8   9
HETATM    9  C6  UNL     1     -32.581  10.006  -0.826  1.00 20.00    -0.003 C 
HETATM   10  C5  UNL     1     -33.341  11.187  -0.243  1.00 20.00     0.005 C 
ENDBRANCH   8   9
ENDBRANCH   7   8
ENDBRANCH   5   7
TORSDOF 3
