REMARK  3 active torsions:
REMARK  status: ('A' for Active; 'I' for Inactive)
REMARK    1  A    between atoms: C7_7  and  C9_9 
REMARK    2  A    between atoms: C8_8  and  C9_9 
REMARK    3  A    between atoms: C8_8  and  N10_10 
ROOT
HETATM    1  C1  UNL     1     -32.654   9.320   2.129  1.00 20.00     0.052 C 
HETATM    2  C2  UNL     1     -32.927   8.142   3.048  1.00 20.00     0.274 C 
HETATM    3  C3  UNL     1     -32.479   7.199   0.953  1.00 20.00     0.292 C 
HETATM    4  C4  UNL     1     -32.048   8.666   0.891  1.00 20.00     0.112 C 
HETATM    5  N10 UNL     1     -33.395   7.134   2.098  1.00 20.00     0.090 N 
HETATM    6 CL11 UNL     1     -32.586   9.470  -0.599  1.00 20.00    -0.123 Cl
ENDROOT
BRANCH   5   7
HETATM    7  C8  UNL     1     -33.468   5.804   2.682  1.00 20.00     0.276 C 
BRANCH   7   8
HETATM    8  C9  UNL     1     -34.362   5.732   3.930  1.00 20.00     0.009 C 
HETATM    9  C6  UNL     1     -35.636   6.562   3.740  1.00 20.00     0.011 C 
BRANCH   8  10
HETATM   10  C7  UNL     1     -34.733   4.297   4.351  1.00 20.00     0.001 C 
HETATM   11  C5  UNL     1     -33.527   3.418   4.652  1.00 20.00     0.005 C 
ENDBRANCH   8  10
ENDBRANCH   7   8
ENDBRANCH   5   7
TORSDOF 3
