REMARK  2 active torsions:
REMARK  status: ('A' for Active; 'I' for Inactive)
REMARK    1  A    between atoms: C3_3  and  C6_6 
REMARK    2  A    between atoms: C5_5  and  C6_6 
ROOT
HETATM    1  C6  UNL     1     -32.085   7.985   1.382  1.00 20.00     0.086 C 
HETATM    2 CL7  UNL     1     -32.364   6.390   0.621  1.00 20.00    -0.125 Cl
ENDROOT
BRANCH   1   3
HETATM    3  C3  UNL     1     -33.001   8.983   0.734  1.00 20.00     0.004 A 
HETATM    4  C1  UNL     1     -32.656  10.447   0.745  1.00 20.00     0.006 A 
HETATM    5  C2  UNL     1     -32.593   9.670  -0.540  1.00 20.00     0.006 A 
ENDBRANCH   1   3
BRANCH   1   6
HETATM    6  C5  UNL     1     -32.306   7.919   2.897  1.00 20.00     0.016 C 
HETATM    7  C4  UNL     1     -33.728   7.539   3.287  1.00 20.00     0.006 C 
ENDBRANCH   1   6
TORSDOF 2
