REMARK  2 active torsions:
REMARK  status: ('A' for Active; 'I' for Inactive)
REMARK    1  A    between atoms: C6_6  and  C8_8 
REMARK    2  A    between atoms: C8_8  and  N9_9 
ROOT
HETATM    1  C3  UNL     1     -33.719   7.610   4.189  1.00 20.00     0.052 C 
HETATM    2  C4  UNL     1     -32.684   8.401   3.390  1.00 20.00     0.274 C 
HETATM    3  C5  UNL     1     -33.112   6.470   2.158  1.00 20.00     0.292 C 
HETATM    4  C7  UNL     1     -34.172   6.497   3.247  1.00 20.00     0.112 C 
HETATM    5  N9  UNL     1     -32.816   7.897   2.021  1.00 20.00     0.090 N 
HETATM    6 CL10 UNL     1     -34.332   4.935   4.065  1.00 20.00    -0.123 Cl
ENDROOT
BRANCH   5   7
HETATM    7  C8  UNL     1     -31.627   8.146   1.219  1.00 20.00     0.277 C 
BRANCH   7   8
HETATM    8  C6  UNL     1     -31.615   9.540   0.693  1.00 20.00     0.014 A 
HETATM    9  C1  UNL     1     -32.423   9.899  -0.523  1.00 20.00     0.007 A 
HETATM   10  C2  UNL     1     -32.833  10.411   0.829  1.00 20.00     0.007 A 
ENDBRANCH   7   8
ENDBRANCH   5   7
TORSDOF 2
