REMARK  3 active torsions:
REMARK  status: ('A' for Active; 'I' for Inactive)
REMARK    1  A    between atoms: C1_1  and  C4_4 
REMARK       I    between atoms: C1_1  and  N7_7 
REMARK    2  A    between atoms: C5_5  and  C6_6 
REMARK    3  A    between atoms: C5_5  and  N7_7 
ROOT
HETATM    1  C1  UNL     1     -33.824   6.182   3.250  1.00 20.00     0.219 C 
HETATM    2  C3  UNL     1     -32.002   5.195   1.844  1.00 20.00     0.152 C 
HETATM    3  N7  UNL     1     -33.039   6.189   2.091  1.00 20.00    -0.355 N 
HETATM    4  O8  UNL     1     -34.115   5.153   3.866  1.00 20.00    -0.273 OA
ENDROOT
BRANCH   3   5
HETATM    5  C5  UNL     1     -33.200   7.194   1.043  1.00 20.00     0.140 C 
BRANCH   5   6
HETATM    6  C6  UNL     1     -32.325   8.416   1.266  1.00 20.00     0.134 C 
HETATM    7 CL9  UNL     1     -32.552   9.620  -0.027  1.00 20.00    -0.129 Cl
ENDBRANCH   5   6
ENDBRANCH   3   5
BRANCH   1   8
HETATM    8  C4  UNL     1     -34.320   7.537   3.733  1.00 20.00     0.098 C 
HETATM    9  C2  UNL     1     -33.363   8.196   4.715  1.00 20.00     0.014 C 
ENDBRANCH   1   8
TORSDOF 3
