REMARK  1 active torsions:
REMARK  status: ('A' for Active; 'I' for Inactive)
REMARK    1  A    between atoms: C8_8  and  N9_9 
ROOT
HETATM    1  C1  UNL     1     -33.037   5.947   2.201  1.00 20.00     0.050 C 
HETATM    2  C2  UNL     1     -33.673   7.554   4.017  1.00 20.00     0.050 C 
HETATM    3  C3  UNL     1     -32.658   7.146   1.328  1.00 20.00     0.274 C 
HETATM    4  C4  UNL     1     -33.273   8.701   3.085  1.00 20.00     0.274 C 
HETATM    5  C5  UNL     1     -34.111   6.331   3.216  1.00 20.00     0.085 C 
HETATM    6  N9  UNL     1     -32.220   8.283   2.149  1.00 20.00     0.092 N 
HETATM    7 CL10 UNL     1     -34.445   4.963   4.310  1.00 20.00    -0.125 Cl
ENDROOT
BRANCH   6   8
HETATM    8  C8  UNL     1     -31.817   9.403   1.299  1.00 20.00     0.215 C 
HETATM    9  C6  UNL     1     -32.796   9.527   0.141  1.00 20.00     0.042 C 
HETATM   10  C7  UNL     1     -30.395   9.165   0.812  1.00 20.00     0.042 C 
ENDBRANCH   6   8
TORSDOF 1
