REMARK  3 active torsions:
REMARK  status: ('A' for Active; 'I' for Inactive)
REMARK    1  A    between atoms: C7_7  and  C8_8 
REMARK    2  A    between atoms: C7_7  and  C9_9 
REMARK    3  A    between atoms: C8_8  and  N10_10 
ROOT
HETATM    1  C1  UNL     1     -33.653   4.815   2.190  1.00 20.00     0.052 C 
HETATM    2  C2  UNL     1     -32.554   5.370   1.285  1.00 20.00     0.274 C 
HETATM    3  C3  UNL     1     -32.994   7.031   2.859  1.00 20.00     0.292 C 
HETATM    4  C4  UNL     1     -34.103   6.006   3.032  1.00 20.00     0.112 C 
HETATM    5  N10 UNL     1     -32.639   6.822   1.454  1.00 20.00     0.089 N 
HETATM    6 CL11 UNL     1     -34.361   5.581   4.732  1.00 20.00    -0.123 Cl
ENDROOT
BRANCH   5   7
HETATM    7  C8  UNL     1     -31.405   7.500   1.084  1.00 20.00     0.272 C 
BRANCH   7   8
HETATM    8  C7  UNL     1     -31.491   9.013   1.269  1.00 20.00     0.034 C 
BRANCH   8   9
HETATM    9  C9  UNL     1     -32.607   9.706   0.464  1.00 20.00    -0.021 C 
HETATM   10  C5  UNL     1     -32.391   9.464  -1.033  1.00 20.00     0.009 C 
HETATM   11  C6  UNL     1     -32.678  11.209   0.737  1.00 20.00     0.009 C 
ENDBRANCH   8   9
ENDBRANCH   7   8
ENDBRANCH   5   7
TORSDOF 3
