REMARK  3 active torsions:
REMARK  status: ('A' for Active; 'I' for Inactive)
REMARK    1  A    between atoms: C1_1  and  C7_7 
REMARK       I    between atoms: C1_1  and  N8_8 
REMARK    2  A    between atoms: C5_5  and  C6_6 
REMARK    3  A    between atoms: C5_5  and  N8_8 
ROOT
HETATM    1  C1  UNL     1     -33.764   6.515   3.253  1.00 20.00     0.222 C 
HETATM    2  C4  UNL     1     -32.879   5.376   1.255  1.00 20.00     0.152 C 
HETATM    3  N8  UNL     1     -32.985   6.565   2.092  1.00 20.00    -0.355 N 
HETATM    4  O9  UNL     1     -33.899   7.483   4.010  1.00 20.00    -0.273 OA
ENDROOT
BRANCH   1   5
HETATM    5  C7  UNL     1     -34.492   5.203   3.568  1.00 20.00     0.070 C 
HETATM    6  C2  UNL     1     -35.777   5.492   4.341  1.00 20.00     0.019 C 
HETATM    7  C3  UNL     1     -33.598   4.266   4.386  1.00 20.00     0.019 C 
ENDBRANCH   1   5
BRANCH   3   8
HETATM    8  C5  UNL     1     -32.266   7.733   1.587  1.00 20.00     0.140 C 
BRANCH   8   9
HETATM    9  C6  UNL     1     -33.109   8.575   0.644  1.00 20.00     0.134 C 
HETATM   10 CL10 UNL     1     -32.200   9.984   0.044  1.00 20.00    -0.129 Cl
ENDBRANCH   8   9
ENDBRANCH   3   8
TORSDOF 3
