REMARK  3 active torsions:
REMARK  status: ('A' for Active; 'I' for Inactive)
REMARK    1  A    between atoms: C6_6  and  C7_7 
REMARK    2  A    between atoms: C7_7  and  C8_8 
REMARK    3  A    between atoms: C8_8  and  N9_9 
ROOT
HETATM    1  C1  UNL     1     -34.206   7.140   4.140  1.00 20.00     0.052 C 
HETATM    2  C2  UNL     1     -33.130   7.991   3.467  1.00 20.00     0.274 C 
HETATM    3  C3  UNL     1     -33.023   5.897   2.452  1.00 20.00     0.292 C 
HETATM    4  C4  UNL     1     -34.292   5.876   3.287  1.00 20.00     0.112 C 
HETATM    5  N9  UNL     1     -32.889   7.330   2.183  1.00 20.00     0.089 N 
HETATM    6 CL10 UNL     1     -34.429   4.404   4.262  1.00 20.00    -0.123 Cl
ENDROOT
BRANCH   5   7
HETATM    7  C8  UNL     1     -31.594   7.672   1.614  1.00 20.00     0.272 C 
BRANCH   7   8
HETATM    8  C7  UNL     1     -31.475   9.157   1.290  1.00 20.00     0.030 C 
BRANCH   8   9
HETATM    9  C6  UNL     1     -32.541   9.630   0.299  1.00 20.00    -0.003 C 
HETATM   10  C5  UNL     1     -32.435  11.125   0.041  1.00 20.00     0.005 C 
ENDBRANCH   8   9
ENDBRANCH   7   8
ENDBRANCH   5   7
TORSDOF 3
