REMARK  2 active torsions:
REMARK  status: ('A' for Active; 'I' for Inactive)
REMARK    1  A    between atoms: C6_6  and  C7_7 
REMARK    2  A    between atoms: C6_6  and  N8_8 
ROOT
HETATM    1  C1  UNL     1     -33.072   5.827   2.126  1.00 20.00     0.050 C 
HETATM    2  C2  UNL     1     -33.901   7.400   3.894  1.00 20.00     0.050 C 
HETATM    3  C3  UNL     1     -32.530   7.037   1.361  1.00 20.00     0.274 C 
HETATM    4  C4  UNL     1     -33.332   8.559   3.072  1.00 20.00     0.274 C 
HETATM    5  C5  UNL     1     -34.265   6.222   2.993  1.00 20.00     0.085 C 
HETATM    6  N8  UNL     1     -32.173   8.128   2.278  1.00 20.00     0.093 N 
HETATM    7 CL11 UNL     1     -34.801   4.835   3.977  1.00 20.00    -0.125 Cl
ENDROOT
BRANCH   6   8
HETATM    8  C6  UNL     1     -31.612   9.257   1.536  1.00 20.00     0.343 C 
BRANCH   8   9
HETATM    9  C7  UNL     1     -32.621   9.795   0.543  1.00 20.00     0.381 C 
HETATM   10  F9  UNL     1     -32.600   9.047  -0.588  1.00 20.00    -0.213 F 
HETATM   11  F10 UNL     1     -32.260  11.053   0.180  1.00 20.00    -0.213 F 
ENDBRANCH   8   9
ENDBRANCH   6   8
TORSDOF 2
