REMARK  1 active torsions:
REMARK  status: ('A' for Active; 'I' for Inactive)
REMARK    1  A    between atoms: C6_6  and  N7_7 
ROOT
HETATM    1  C1  UNL     1     -32.496   9.036   0.762  1.00 20.00     0.158 C 
HETATM    2  N7  UNL     1     -32.132   8.032   1.244  1.00 20.00    -0.268 NA
HETATM    3  S9  UNL     1     -32.956  10.409   0.099  1.00 20.00    -0.055 SA
ENDROOT
BRANCH   2   4
HETATM    4  C6  UNL     1     -33.201   7.200   1.800  1.00 20.00     0.133 C 
HETATM    5  C3  UNL     1     -32.804   5.730   1.687  1.00 20.00     0.032 C 
HETATM    6  C2  UNL     1     -33.798   4.852   2.439  1.00 20.00     0.028 C 
HETATM    7  C4  UNL     1     -34.002   5.364   3.859  1.00 20.00     0.167 C 
HETATM    8  O8  UNL     1     -34.414   6.731   3.851  1.00 20.00    -0.389 OA
HETATM    9  C5  UNL     1     -33.435   7.584   3.256  1.00 20.00     0.195 C 
ENDBRANCH   2   4
TORSDOF 1
