REMARK  5 active torsions:
REMARK  status: ('A' for Active; 'I' for Inactive)
REMARK    1  A    between atoms: C2_2  and  C8_8 
REMARK    2  A    between atoms: C5_5  and  C9_9 
REMARK    3  A    between atoms: C7_7  and  C8_8 
REMARK    4  A    between atoms: C7_7  and  C9_9 
REMARK    5  A    between atoms: C9_9  and  O10_10 
ROOT
HETATM    1  C9  UNL     1     -33.291   6.572   2.160  1.00 20.00     0.122 C 
ENDROOT
BRANCH   1   2
HETATM    2  C5  UNL     1     -33.590   6.247   3.617  1.00 20.00     0.014 A 
HETATM    3  C3  UNL     1     -34.651   7.010   4.361  1.00 20.00     0.007 A 
HETATM    4  C4  UNL     1     -34.880   5.571   3.992  1.00 20.00     0.007 A 
ENDBRANCH   1   2
BRANCH   1   5
HETATM    5  C7  UNL     1     -32.309   7.739   1.986  1.00 20.00     0.040 C 
BRANCH   5   6
HETATM    6  C8  UNL     1     -32.388   8.478   0.637  1.00 20.00     0.005 C 
HETATM    7  C6  UNL     1     -31.608   7.700  -0.428  1.00 20.00     0.014 C 
BRANCH   6   8
HETATM    8  C2  UNL     1     -31.840   9.880   0.733  1.00 20.00    -0.033 C 
HETATM    9  C1  UNL     1     -32.548  10.981   0.456  1.00 20.00     0.007 C 
ENDBRANCH   6   8
ENDBRANCH   5   6
ENDBRANCH   1   5
BRANCH   1  10
HETATM   10  O10 UNL     1     -32.714   5.404   1.573  1.00 20.00    -0.395 OA
HETATM   11  H26 UNL     1     -32.530   5.626   0.649  1.00 20.00     0.210 HD
ENDBRANCH   1  10
TORSDOF 5
