REMARK  3 active torsions:
REMARK  status: ('A' for Active; 'I' for Inactive)
REMARK    1  A    between atoms: C4_4  and  C7_7 
REMARK    2  A    between atoms: C8_8  and  C9_9 
REMARK    3  A    between atoms: C8_8  and  N10_10 
ROOT
HETATM    1  C1  UNL     1     -33.855   7.836   3.911  1.00 20.00     0.032 C 
HETATM    2  C2  UNL     1     -34.370   6.537   3.306  1.00 20.00     0.038 C 
HETATM    3  C3  UNL     1     -32.537   8.116   3.208  1.00 20.00     0.273 C 
HETATM    4  C4  UNL     1     -33.343   6.138   2.246  1.00 20.00     0.236 C 
HETATM    5  N10 UNL     1     -32.579   7.364   1.945  1.00 20.00     0.094 N 
ENDROOT
BRANCH   5   6
HETATM    6  C8  UNL     1     -33.226   8.147   0.890  1.00 20.00     0.277 C 
BRANCH   6   7
HETATM    7  C9  UNL     1     -32.254   9.139   0.239  1.00 20.00     0.006 C 
HETATM    8  C5  UNL     1     -31.054   8.440  -0.402  1.00 20.00     0.011 C 
HETATM    9  C6  UNL     1     -32.953  10.047  -0.773  1.00 20.00     0.011 C 
ENDBRANCH   6   7
ENDBRANCH   5   6
BRANCH   4  10
HETATM   10  C7  UNL     1     -32.397   5.047   2.756  1.00 20.00     0.150 C 
HETATM   11 CL11 UNL     1     -31.231   4.607   1.494  1.00 20.00    -0.128 Cl
ENDBRANCH   4  10
TORSDOF 3
