REMARK  5 active torsions:
REMARK  status: ('A' for Active; 'I' for Inactive)
REMARK    1  A    between atoms: C5_5  and  C9_9 
REMARK    2  A    between atoms: C6_6  and  C7_7 
REMARK    3  A    between atoms: C6_6  and  C8_8 
REMARK    4  A    between atoms: C7_7  and  C9_9 
REMARK    5  A    between atoms: C8_8  and  C10_10 
ROOT
HETATM    1  C6  UNL     1     -32.218   7.191   1.590  1.00 20.00     0.002 C 
ENDROOT
BRANCH   1   2
HETATM    2  C7  UNL     1     -33.058   6.002   2.079  1.00 20.00     0.020 C 
BRANCH   2   3
HETATM    3  C9  UNL     1     -34.133   6.401   3.101  1.00 20.00     0.082 C 
HETATM    4 CL11 UNL     1     -33.389   7.237   4.501  1.00 20.00    -0.125 Cl
BRANCH   3   5
HETATM    5  C5  UNL     1     -34.981   5.211   3.577  1.00 20.00     0.016 C 
HETATM    6  C1  UNL     1     -34.208   4.082   4.247  1.00 20.00     0.006 C 
ENDBRANCH   3   5
ENDBRANCH   2   3
ENDBRANCH   1   2
BRANCH   1   7
HETATM    7  C8  UNL     1     -33.107   8.254   0.929  1.00 20.00     0.008 C 
BRANCH   7   8
HETATM    8  C10 UNL     1     -32.364   9.481   0.336  1.00 20.00    -0.051 C 
HETATM    9  C2  UNL     1     -32.870  10.793   0.958  1.00 20.00     0.014 C 
HETATM   10  C3  UNL     1     -30.864   9.335   0.658  1.00 20.00     0.014 C 
HETATM   11  C4  UNL     1     -32.530   9.548  -1.191  1.00 20.00     0.014 C 
ENDBRANCH   7   8
ENDBRANCH   1   7
TORSDOF 5
