REMARK  0 active torsions:
REMARK  status: ('A' for Active; 'I' for Inactive)
ROOT
HETATM    1  C1  UNL     1     -33.154   5.280   2.209  1.00 20.00     0.009 A 
HETATM    2  C2  UNL     1     -32.174   5.983   1.503  1.00 20.00     0.019 A 
HETATM    3  C3  UNL     1     -32.707   8.035   2.708  1.00 20.00     0.026 A 
HETATM    4  C4  UNL     1     -33.880   5.981   3.143  1.00 20.00    -0.051 A 
HETATM    5  C5  UNL     1     -33.663   7.316   3.385  1.00 20.00    -0.050 A 
HETATM    6  C6  UNL     1     -31.952   7.352   1.751  1.00 20.00     0.011 A 
HETATM    7  C7  UNL     1     -34.975   5.876   4.162  1.00 20.00     0.043 A 
HETATM    8  C8  UNL     1     -34.729   7.397   4.437  1.00 20.00     0.043 A 
HETATM    9 BR9  UNL     1     -30.616   8.272   0.778  1.00 20.00    -0.051 Br
ENDROOT
TORSDOF 0
