REMARK  1 active torsions:
REMARK  status: ('A' for Active; 'I' for Inactive)
REMARK    1  A    between atoms: C4_4  and  C9_9 
ROOT
HETATM    1  C1  UNL     1     -35.270   6.712   4.506  1.00 20.00    -0.003 A 
HETATM    2  C2  UNL     1     -34.228   7.268   3.682  1.00 20.00     0.004 A 
HETATM    3  C3  UNL     1     -35.428   5.414   4.214  1.00 20.00    -0.022 A 
HETATM    4  C4  UNL     1     -33.737   6.314   2.876  1.00 20.00    -0.069 A 
HETATM    5  C5  UNL     1     -34.460   5.020   3.135  1.00 20.00     0.062 A 
ENDROOT
BRANCH   4   6
HETATM    6  C9  UNL     1     -32.641   6.433   1.851  1.00 20.00    -0.028 C 
HETATM    7  C6  UNL     1     -33.205   6.071   0.470  1.00 20.00     0.019 C 
HETATM    8  C7  UNL     1     -31.496   5.476   2.208  1.00 20.00     0.019 C 
HETATM    9  C8  UNL     1     -32.111   7.874   1.830  1.00 20.00     0.019 C 
ENDBRANCH   4   6
TORSDOF 1
