REMARK  2 active torsions:
REMARK  status: ('A' for Active; 'I' for Inactive)
REMARK    1  A    between atoms: C3_3  and  C10_10 
REMARK    2  A    between atoms: C4_4  and  C10_10 
ROOT
HETATM    1  C5  UNL     1     -33.928   8.002   4.668  1.00 20.00     0.000 C 
HETATM    2  C6  UNL     1     -32.874   8.871   3.992  1.00 20.00     0.001 C 
HETATM    3  C7  UNL     1     -34.661   7.127   3.659  1.00 20.00     0.001 C 
HETATM    4  C8  UNL     1     -31.888   8.032   3.179  1.00 20.00     0.017 C 
HETATM    5  C9  UNL     1     -33.692   6.274   2.839  1.00 20.00     0.017 C 
HETATM    6  C10 UNL     1     -32.582   7.102   2.168  1.00 20.00    -0.006 C 
ENDROOT
BRANCH   6   7
HETATM    7  C3  UNL     1     -33.160   7.918   1.038  1.00 20.00    -0.023 C 
HETATM    8  C1  UNL     1     -32.436   8.709   0.239  1.00 20.00     0.008 C 
ENDBRANCH   6   7
BRANCH   6   9
HETATM    9  C4  UNL     1     -31.563   6.135   1.623  1.00 20.00    -0.023 C 
HETATM   10  C2  UNL     1     -31.839   5.188   0.719  1.00 20.00     0.008 C 
ENDBRANCH   6   9
TORSDOF 2
