REMARK  0 active torsions:
REMARK  status: ('A' for Active; 'I' for Inactive)
ROOT
HETATM    1  C1  UNL     1     -34.575   5.883   3.630  1.00 20.00     0.119 C 
HETATM    2  C2  UNL     1     -33.086   7.581   2.596  1.00 20.00     0.063 A 
HETATM    3  C3  UNL     1     -32.132   6.247   1.126  1.00 20.00     0.137 A 
HETATM    4  C4  UNL     1     -33.577   6.298   2.695  1.00 20.00     0.137 A 
HETATM    5  C5  UNL     1     -32.148   7.547   1.577  1.00 20.00     0.031 A 
HETATM    6  N6  UNL     1     -35.385   5.546   4.390  1.00 20.00    -0.190 NA
HETATM    7  N7  UNL     1     -32.998   5.486   1.804  1.00 20.00    -0.249 NA
HETATM    8 BR8  UNL     1     -31.114   8.980   0.947  1.00 20.00    -0.050 Br
ENDROOT
TORSDOF 0
