REMARK  0 active torsions:
REMARK  status: ('A' for Active; 'I' for Inactive)
ROOT
HETATM    1  C1  UNL     1     -32.000   5.616   2.560  1.00 20.00     0.017 A 
HETATM    2  C2  UNL     1     -31.708   6.830   1.939  1.00 20.00     0.025 A 
HETATM    3  C3  UNL     1     -35.413   6.259   3.854  1.00 20.00     0.031 A 
HETATM    4  C4  UNL     1     -33.875   7.685   2.582  1.00 20.00     0.036 A 
HETATM    5  C5  UNL     1     -35.645   5.030   4.452  1.00 20.00     0.119 A 
HETATM    6  C6  UNL     1     -33.237   5.426   3.198  1.00 20.00     0.010 A 
HETATM    7  C7  UNL     1     -34.186   6.469   3.212  1.00 20.00    -0.020 A 
HETATM    8  C8  UNL     1     -32.643   7.862   1.951  1.00 20.00     0.034 A 
HETATM    9  C9  UNL     1     -33.582   4.232   3.834  1.00 20.00     0.113 A 
HETATM   10  N10 UNL     1     -34.760   4.010   4.459  1.00 20.00    -0.253 NA
HETATM   11 CL11 UNL     1     -32.279   9.360   1.184  1.00 20.00    -0.084 Cl
HETATM   12 BR12 UNL     1     -32.403   2.723   3.903  1.00 20.00    -0.028 Br
ENDROOT
TORSDOF 0
