REMARK  0 active torsions:
REMARK  status: ('A' for Active; 'I' for Inactive)
ROOT
HETATM    1  C1  UNL     1     -33.867   7.677   3.849  1.00 20.00     0.036 A 
HETATM    2  C2  UNL     1     -34.610   6.602   4.133  1.00 20.00     0.007 A 
HETATM    3  C3  UNL     1     -33.015   7.464   2.671  1.00 20.00     0.086 A 
HETATM    4  C4  UNL     1     -34.479   5.403   3.256  1.00 20.00     0.172 A 
HETATM    5  N5  UNL     1     -32.192   8.309   2.164  1.00 20.00    -0.293 NA
HETATM    6  S6  UNL     1     -33.251   5.865   2.000  1.00 20.00    -0.086 SA
HETATM    7 CL7  UNL     1     -33.933   4.003   4.196  1.00 20.00    -0.109 Cl
HETATM    8  H11 UNL     1     -31.735   7.893   1.344  1.00 20.00     0.187 HD
ENDROOT
TORSDOF 0
