REMARK  1 active torsions:
REMARK  status: ('A' for Active; 'I' for Inactive)
REMARK    1  A    between atoms: C6_6  and  C7_7 
ROOT
HETATM    1  C3  UNL     1     -33.829   7.323   3.308  1.00 20.00     0.296 C 
HETATM    2  C4  UNL     1     -33.539   5.909   2.827  1.00 20.00     0.197 C 
HETATM    3  C5  UNL     1     -31.853   6.683   1.380  1.00 20.00     0.203 C 
HETATM    4  C7  UNL     1     -32.048   8.126   1.858  1.00 20.00     0.248 C 
HETATM    5  N8  UNL     1     -32.636   8.170   3.206  1.00 20.00     0.092 N 
HETATM    6  O9  UNL     1     -33.067   5.936   1.481  1.00 20.00    -0.387 OA
HETATM    7  H22 UNL     1     -32.906   9.136   3.420  1.00 20.00     0.316 HD
ENDROOT
BRANCH   4   8
HETATM    8  C6  UNL     1     -32.850   8.945   0.880  1.00 20.00     0.021 A 
HETATM    9  C1  UNL     1     -32.746  10.445   0.881  1.00 20.00     0.007 A 
HETATM   10  C2  UNL     1     -32.166   9.652  -0.257  1.00 20.00     0.007 A 
ENDBRANCH   4   8
TORSDOF 1
