REMARK  1 active torsions:
REMARK  status: ('A' for Active; 'I' for Inactive)
REMARK    1  A    between atoms: C1_1  and  C4_4 
ROOT
HETATM    1  C2  UNL     1     -32.159   8.228   2.581  1.00 20.00     0.013 C 
HETATM    2  C3  UNL     1     -31.511   7.583   1.342  1.00 20.00     0.010 C 
HETATM    3  C4  UNL     1     -33.417   7.363   2.318  1.00 20.00     0.062 C 
HETATM    4  C5  UNL     1     -32.487   6.383   1.516  1.00 20.00    -0.037 C 
HETATM    5  C7  UNL     1     -33.099   5.892   0.206  1.00 20.00     0.015 C 
HETATM    6  C8  UNL     1     -31.883   5.223   2.311  1.00 20.00     0.015 C 
ENDROOT
BRANCH   3   7
HETATM    7  C1  UNL     1     -34.184   6.820   3.527  1.00 20.00     0.128 C 
HETATM    8  C6  UNL     1     -34.279   7.722   4.728  1.00 20.00     0.091 C 
HETATM    9  O9  UNL     1     -34.698   5.703   3.517  1.00 20.00    -0.298 OA
ENDBRANCH   3   7
TORSDOF 1
