REMARK  0 active torsions:
REMARK  status: ('A' for Active; 'I' for Inactive)
ROOT
HETATM    1  C1  UNL     1     -32.325   7.521   0.442  1.00 20.00     0.009 C 
HETATM    2  C2  UNL     1     -31.942   8.052   2.864  1.00 20.00     0.012 C 
HETATM    3  C3  UNL     1     -31.533   5.726   2.004  1.00 20.00     0.012 C 
HETATM    4  C4  UNL     1     -34.277   7.975   1.951  1.00 20.00     0.012 C 
HETATM    5  C5  UNL     1     -33.869   5.655   1.094  1.00 20.00     0.012 C 
HETATM    6  C6  UNL     1     -31.439   7.225   1.665  1.00 20.00    -0.013 C 
HETATM    7  C7  UNL     1     -33.788   7.152   0.747  1.00 20.00    -0.013 C 
HETATM    8  C8  UNL     1     -33.401   7.682   3.183  1.00 20.00     0.021 C 
HETATM    9  C9  UNL     1     -32.991   5.348   2.320  1.00 20.00     0.021 C 
HETATM   10  C10 UNL     1     -33.470   6.185   3.516  1.00 20.00     0.178 C 
HETATM   11  F11 UNL     1     -34.755   5.850   3.811  1.00 20.00    -0.249 F 
ENDROOT
TORSDOF 0
