REMARK  1 active torsions:
REMARK  status: ('A' for Active; 'I' for Inactive)
REMARK    1  A    between atoms: C2_2  and  C3_3 
ROOT
HETATM    1  C1  UNL     1     -31.993   5.405   2.839  1.00 20.00     0.058 C 
HETATM    2  C2  UNL     1     -33.115   6.298   2.312  1.00 20.00     0.189 C 
HETATM    3 CL6  UNL     1     -32.399   7.772   1.574  1.00 20.00    -0.094 Cl
HETATM    4 CL7  UNL     1     -33.966   5.404   0.997  1.00 20.00    -0.094 Cl
ENDROOT
BRANCH   2   5
HETATM    5  C3  UNL     1     -34.142   6.677   3.388  1.00 20.00     0.354 C 
HETATM    6  F4  UNL     1     -35.104   7.468   2.841  1.00 20.00    -0.184 F 
HETATM    7  F5  UNL     1     -33.547   7.420   4.359  1.00 20.00    -0.184 F 
HETATM    8 CL8  UNL     1     -34.938   5.281   4.153  1.00 20.00    -0.045 Cl
ENDBRANCH   2   5
TORSDOF 1
