REMARK  0 active torsions:
REMARK  status: ('A' for Active; 'I' for Inactive)
ROOT
HETATM    1  C1  UNL     1     -33.343   8.227   3.332  1.00 20.00     0.105 C 
HETATM    2  C2  UNL     1     -33.350   6.466   2.125  1.00 20.00     0.260 C 
HETATM    3  C3  UNL     1     -33.855   6.788   3.553  1.00 20.00     0.128 C 
HETATM    4  C4  UNL     1     -32.351   7.641   2.301  1.00 20.00     0.276 C 
HETATM    5  F5  UNL     1     -32.797   5.244   1.957  1.00 20.00    -0.241 F 
HETATM    6  F6  UNL     1     -31.137   7.300   2.792  1.00 20.00    -0.203 F 
HETATM    7  F7  UNL     1     -32.132   8.394   1.201  1.00 20.00    -0.203 F 
HETATM    8 CL8  UNL     1     -35.583   6.546   3.927  1.00 20.00    -0.122 Cl
ENDROOT
TORSDOF 0
