REMARK  0 active torsions:
REMARK  status: ('A' for Active; 'I' for Inactive)
ROOT
HETATM    1  C1  UNL     1     -33.508   4.355   3.530  1.00 20.00     0.131 C 
HETATM    2  C2  UNL     1     -32.862   4.150   2.126  1.00 20.00     0.083 C 
HETATM    3  C3  UNL     1     -33.937   6.838   4.692  1.00 20.00     0.013 C 
HETATM    4  C4  UNL     1     -33.686   8.149   3.843  1.00 20.00     0.006 C 
HETATM    5  C5  UNL     1     -31.930   6.462   0.817  1.00 20.00     0.006 C 
HETATM    6  C6  UNL     1     -32.240   7.924   1.421  1.00 20.00     0.005 C 
HETATM    7  C7  UNL     1     -34.153   5.736   3.653  1.00 20.00     0.060 C 
HETATM    8  C8  UNL     1     -32.301   5.537   1.982  1.00 20.00    -0.002 C 
HETATM    9  C9  UNL     1     -32.720   7.592   2.834  1.00 20.00    -0.009 C 
HETATM   10  C10 UNL     1     -33.471   6.343   2.468  1.00 20.00     0.005 C 
HETATM   11  O11 UNL     1     -33.558   3.493   4.396  1.00 20.00    -0.298 OA
ENDROOT
TORSDOF 0
