REMARK  1 active torsions:
REMARK  status: ('A' for Active; 'I' for Inactive)
REMARK    1  A    between atoms: C8_8  and  O12_12 
ROOT
HETATM    1  C1  UNL     1     -32.565   7.241   1.918  1.00 20.00    -0.049 C 
HETATM    2  C2  UNL     1     -33.519   7.565   4.274  1.00 20.00     0.135 C 
HETATM    3  C3  UNL     1     -32.339   8.457   1.416  1.00 20.00     0.017 C 
HETATM    4  C4  UNL     1     -34.960   7.161   4.528  1.00 20.00     0.079 C 
HETATM    5  C5  UNL     1     -35.221   5.688   4.229  1.00 20.00     0.008 C 
HETATM    6  C6  UNL     1     -34.832   5.355   2.793  1.00 20.00     0.009 C 
HETATM    7  C7  UNL     1     -32.662   6.693   3.329  1.00 20.00     0.092 C 
HETATM    8  C8  UNL     1     -32.792   5.894   1.258  1.00 20.00     0.155 C 
HETATM    9  C9  UNL     1     -33.312   5.455   2.654  1.00 20.00     0.034 C 
HETATM   10  O11 UNL     1     -33.088   8.599   4.802  1.00 20.00    -0.297 OA
ENDROOT
BRANCH   8  11
HETATM   11  O12 UNL     1     -31.587   5.252   0.803  1.00 20.00    -0.386 OA
HETATM   12  C10 UNL     1     -31.877   4.005   0.200  1.00 20.00     0.202 C 
ENDBRANCH   8  11
TORSDOF 1
