REMARK  0 active torsions:
REMARK  status: ('A' for Active; 'I' for Inactive)
ROOT
HETATM    1  C1  UNL     1     -33.357   7.804   0.697  1.00 20.00    -0.020 A 
HETATM    2  C2  UNL     1     -32.886   8.930   1.262  1.00 20.00    -0.020 A 
HETATM    3  C3  UNL     1     -34.216   7.490   3.638  1.00 20.00     0.002 C 
HETATM    4  C4  UNL     1     -33.781   6.308   2.780  1.00 20.00     0.014 C 
HETATM    5  C5  UNL     1     -32.942   8.314   3.787  1.00 20.00     0.014 C 
HETATM    6  C6  UNL     1     -32.773   6.888   1.771  1.00 20.00    -0.016 A 
HETATM    7  C7  UNL     1     -32.224   8.200   2.430  1.00 20.00    -0.016 A 
HETATM    8  C8  UNL     1     -31.805   5.839   1.242  1.00 20.00     0.020 C 
HETATM    9  C9  UNL     1     -30.723   8.425   2.541  1.00 20.00     0.020 C 
ENDROOT
TORSDOF 0
