REMARK  0 active torsions:
REMARK  status: ('A' for Active; 'I' for Inactive)
ROOT
HETATM    1  C1  UNL     1     -34.599   7.646   4.360  1.00 20.00    -0.023 C 
HETATM    2  C2  UNL     1     -34.532   6.347   4.022  1.00 20.00    -0.080 C 
HETATM    3  C3  UNL     1     -32.285   8.278   2.186  1.00 20.00     0.127 C 
HETATM    4  C4  UNL     1     -33.646   8.797   4.216  1.00 20.00     0.035 C 
HETATM    5  C5  UNL     1     -35.641   5.407   4.443  1.00 20.00     0.034 C 
HETATM    6  C6  UNL     1     -32.252   8.544   3.671  1.00 20.00     0.082 C 
HETATM    7  C7  UNL     1     -31.941   6.885   1.730  1.00 20.00     0.079 C 
HETATM    8  C8  UNL     1     -34.919   4.080   4.576  1.00 20.00     0.005 C 
HETATM    9  C9  UNL     1     -33.111   5.925   1.891  1.00 20.00     0.016 C 
HETATM   10  C10 UNL     1     -33.964   4.105   3.399  1.00 20.00     0.009 C 
HETATM   11  C11 UNL     1     -33.424   5.551   3.350  1.00 20.00     0.014 C 
HETATM   12  O12 UNL     1     -32.606   9.153   1.382  1.00 20.00    -0.298 OA
ENDROOT
TORSDOF 0
