REMARK  0 active torsions:
REMARK  status: ('A' for Active; 'I' for Inactive)
ROOT
HETATM    1  C1  UNL     1     -34.452   7.686   3.800  1.00 20.00     0.003 C 
HETATM    2  C2  UNL     1     -34.751   6.385   3.869  1.00 20.00     0.050 C 
HETATM    3  C3  UNL     1     -33.226   8.316   3.391  1.00 20.00    -0.004 C 
HETATM    4  C4  UNL     1     -32.286   7.826   2.574  1.00 20.00    -0.021 C 
HETATM    5  C5  UNL     1     -33.904   5.235   3.476  1.00 20.00     0.154 C 
HETATM    6  C6  UNL     1     -33.343   6.028   1.064  1.00 20.00     0.022 A 
HETATM    7  C7  UNL     1     -32.199   6.535   1.898  1.00 20.00     0.020 A 
HETATM    8  C8  UNL     1     -32.955   5.320   2.340  1.00 20.00     0.068 A 
HETATM    9  O9  UNL     1     -34.041   4.164   4.062  1.00 20.00    -0.293 OA
ENDROOT
TORSDOF 0
