REMARK  1 active torsions:
REMARK  status: ('A' for Active; 'I' for Inactive)
REMARK    1  A    between atoms: C2_2  and  C4_4 
ROOT
HETATM    1  C1  UNL     1     -33.395   7.532   3.293  1.00 20.00    -0.034 C 
HETATM    2  C2  UNL     1     -34.364   7.200   4.159  1.00 20.00    -0.016 C 
HETATM    3  C3  UNL     1     -33.042   6.723   2.090  1.00 20.00     0.036 C 
ENDROOT
BRANCH   2   4
HETATM    4  C4  UNL     1     -35.209   5.976   4.025  1.00 20.00     0.141 C 
HETATM    5 CL5  UNL     1     -34.185   4.525   4.060  1.00 20.00    -0.126 Cl
ENDBRANCH   2   4
TORSDOF 1
