REMARK  0 active torsions:
REMARK  status: ('A' for Active; 'I' for Inactive)
ROOT
HETATM    1  C1  UNL     1     -33.284   4.861   2.659  1.00 20.00    -0.021 C 
HETATM    2  C2  UNL     1     -34.758   6.702   3.875  1.00 20.00    -0.021 C 
HETATM    3  C3  UNL     1     -32.608   5.486   1.662  1.00 20.00    -0.023 C 
HETATM    4  C4  UNL     1     -34.458   8.018   3.728  1.00 20.00    -0.023 C 
HETATM    5  C5  UNL     1     -33.551   5.777   3.854  1.00 20.00     0.035 C 
HETATM    6  C6  UNL     1     -32.785   6.910   1.915  1.00 20.00     0.033 C 
HETATM    7  C7  UNL     1     -32.973   8.245   3.570  1.00 20.00     0.033 C 
HETATM    8  C8  UNL     1     -32.497   6.803   3.528  1.00 20.00     0.015 C 
HETATM    9  C9  UNL     1     -32.192   8.280   2.153  1.00 20.00     0.098 C 
HETATM   10 CL10 UNL     1     -32.598   9.602   1.008  1.00 20.00    -0.124 Cl
ENDROOT
TORSDOF 0
