REMARK  0 active torsions:
REMARK  status: ('A' for Active; 'I' for Inactive)
ROOT
HETATM    1  C1  UNL     1     -33.353   8.718   2.961  1.00 20.00     0.129 C 
HETATM    2  C2  UNL     1     -33.520   7.248   3.392  1.00 20.00     0.254 C 
HETATM    3  C3  UNL     1     -32.314   8.242   1.925  1.00 20.00     0.313 C 
HETATM    4  C4  UNL     1     -32.993   6.850   1.991  1.00 20.00     0.338 C 
HETATM    5  F5  UNL     1     -34.780   6.855   3.681  1.00 20.00    -0.243 F 
HETATM    6  F6  UNL     1     -32.356   8.858   0.723  1.00 20.00    -0.199 F 
HETATM    7  F7  UNL     1     -31.026   8.276   2.339  1.00 20.00    -0.199 F 
HETATM    8  F8  UNL     1     -33.947   6.629   1.057  1.00 20.00    -0.196 F 
HETATM    9  F9  UNL     1     -32.158   5.789   1.958  1.00 20.00    -0.196 F 
ENDROOT
TORSDOF 0
