REMARK  0 active torsions:
REMARK  status: ('A' for Active; 'I' for Inactive)
ROOT
HETATM    1  C1  UNL     1     -34.447   6.268   3.514  1.00 20.00     0.196 C 
HETATM    2  C2  UNL     1     -33.576   7.498   3.649  1.00 20.00     0.092 C 
HETATM    3  C3  UNL     1     -32.958   7.947   2.325  1.00 20.00     0.019 C 
HETATM    4  C4  UNL     1     -32.003   6.928   1.698  1.00 20.00     0.087 C 
HETATM    5  O5  UNL     1     -35.650   6.257   3.735  1.00 20.00    -0.285 OA
HETATM    6  S6  UNL     1     -33.566   4.808   3.079  1.00 20.00    -0.020 SA
HETATM    7  S7  UNL     1     -32.884   5.406   1.240  1.00 20.00    -0.090 SA
ENDROOT
TORSDOF 0
