REMARK  0 active torsions:
REMARK  status: ('A' for Active; 'I' for Inactive)
ROOT
HETATM    1  C1  UNL     1     -31.349   7.088   1.389  1.00 20.00    -0.021 C 
HETATM    2  C2  UNL     1     -31.645   8.736   3.251  1.00 20.00    -0.021 C 
HETATM    3  C3  UNL     1     -32.057   5.954   1.474  1.00 20.00    -0.023 C 
HETATM    4  C4  UNL     1     -32.495   8.391   4.228  1.00 20.00    -0.023 C 
HETATM    5  C5  UNL     1     -32.092   8.297   1.885  1.00 20.00     0.035 C 
HETATM    6  C6  UNL     1     -33.402   6.216   2.039  1.00 20.00     0.033 A 
HETATM    7  C7  UNL     1     -33.662   7.664   3.675  1.00 20.00     0.033 A 
HETATM    8  C8  UNL     1     -33.510   7.751   2.143  1.00 20.00     0.015 A 
HETATM    9  C9  UNL     1     -33.532   6.119   3.583  1.00 20.00     0.098 A 
HETATM   10 CL10 UNL     1     -34.900   5.136   4.236  1.00 20.00    -0.124 Cl
ENDROOT
TORSDOF 0
