REMARK  0 active torsions:
REMARK  status: ('A' for Active; 'I' for Inactive)
ROOT
HETATM    1  C1  UNL     1     -35.055   4.939   4.380  1.00 20.00     0.006 C 
HETATM    2  C2  UNL     1     -33.781   4.662   3.574  1.00 20.00     0.011 C 
HETATM    3  C3  UNL     1     -34.923   7.572   4.235  1.00 20.00     0.010 C 
HETATM    4  C4  UNL     1     -33.415   7.702   4.058  1.00 20.00     0.069 C 
HETATM    5  C5  UNL     1     -32.299   8.285   0.990  1.00 20.00     0.197 C 
HETATM    6  C6  UNL     1     -31.466   7.053   1.211  1.00 20.00     0.197 C 
HETATM    7  C7  UNL     1     -35.283   6.237   3.582  1.00 20.00    -0.005 C 
HETATM    8  C8  UNL     1     -34.103   5.864   2.654  1.00 20.00     0.052 C 
HETATM    9  C9  UNL     1     -33.166   7.070   2.693  1.00 20.00     0.168 C 
HETATM   10  O10 UNL     1     -33.530   7.980   1.644  1.00 20.00    -0.353 OA
HETATM   11  O11 UNL     1     -31.803   6.666   2.542  1.00 20.00    -0.353 OA
ENDROOT
TORSDOF 0
