REMARK  0 active torsions:
REMARK  status: ('A' for Active; 'I' for Inactive)
ROOT
HETATM    1  C1  UNL     1     -34.487   5.573   3.931  1.00 20.00     0.147 A 
HETATM    2  C2  UNL     1     -34.468   7.688   4.242  1.00 20.00     0.214 A 
HETATM    3  C3  UNL     1     -33.653   6.080   2.963  1.00 20.00     0.057 A 
HETATM    4  C4  UNL     1     -32.869   5.567   1.897  1.00 20.00     0.033 A 
HETATM    5  C5  UNL     1     -32.155   6.418   1.133  1.00 20.00     0.023 A 
HETATM    6  C6  UNL     1     -32.913   8.340   2.389  1.00 20.00     0.117 A 
HETATM    7  C7  UNL     1     -32.168   7.859   1.377  1.00 20.00     0.027 A 
HETATM    8  N8  UNL     1     -34.989   6.578   4.721  1.00 20.00    -0.253 NA
HETATM    9  N9  UNL     1     -33.646   7.450   3.170  1.00 20.00    -0.314 N 
HETATM   10 BR10 UNL     1     -31.151   8.956   0.268  1.00 20.00    -0.050 Br
ENDROOT
TORSDOF 0
