REMARK  2 active torsions:
REMARK  status: ('A' for Active; 'I' for Inactive)
REMARK    1  A    between atoms: C2_2  and  C3_3 
REMARK    2  A    between atoms: C2_2  and  C4_4 
ROOT
HETATM    1  C2  UNL     1     -33.095   6.417   2.284  1.00 20.00     0.244 C 
HETATM    2 CL9  UNL     1     -34.091   5.445   1.139  1.00 20.00    -0.111 Cl
ENDROOT
BRANCH   1   3
HETATM    3  C3  UNL     1     -33.993   7.086   3.346  1.00 20.00     0.200 C 
HETATM    4  C1  UNL     1     -33.218   7.857   4.413  1.00 20.00     0.072 C 
HETATM    5  F5  UNL     1     -34.829   7.966   2.724  1.00 20.00    -0.224 F 
HETATM    6 CL10 UNL     1     -35.009   5.874   4.192  1.00 20.00    -0.081 Cl
ENDBRANCH   1   3
BRANCH   1   7
HETATM    7  C4  UNL     1     -32.272   7.387   1.443  1.00 20.00     0.408 C 
HETATM    8  F6  UNL     1     -31.565   6.747   0.487  1.00 20.00    -0.169 F 
HETATM    9  F7  UNL     1     -33.069   8.292   0.827  1.00 20.00    -0.169 F 
HETATM   10  F8  UNL     1     -31.400   8.092   2.195  1.00 20.00    -0.169 F 
ENDBRANCH   1   7
TORSDOF 2
