REMARK  0 active torsions:
REMARK  status: ('A' for Active; 'I' for Inactive)
ROOT
HETATM    1  C1  UNL     1     -33.293   5.683   1.163  1.00 20.00    -0.020 C 
HETATM    2  C2  UNL     1     -31.986   5.892   1.531  1.00 20.00    -0.020 C 
HETATM    3  C3  UNL     1     -33.745   8.169   3.918  1.00 20.00     0.002 C 
HETATM    4  C4  UNL     1     -34.632   7.426   2.873  1.00 20.00     0.014 C 
HETATM    5  C5  UNL     1     -32.289   7.685   3.641  1.00 20.00     0.014 C 
HETATM    6  C6  UNL     1     -33.726   6.271   2.501  1.00 20.00    -0.016 C 
HETATM    7  C7  UNL     1     -32.424   7.180   2.219  1.00 20.00    -0.016 C 
HETATM    8  C8  UNL     1     -33.856   5.142   3.558  1.00 20.00     0.020 C 
HETATM    9  C9  UNL     1     -32.323   8.370   1.229  1.00 20.00     0.020 C 
ENDROOT
TORSDOF 0
