REMARK  0 active torsions:
REMARK  status: ('A' for Active; 'I' for Inactive)
ROOT
HETATM    1  C1  UNL     1     -34.183   5.557   3.753  1.00 20.00    -0.025 C 
HETATM    2  C2  UNL     1     -33.593   5.279   2.581  1.00 20.00    -0.025 C 
HETATM    3  C3  UNL     1     -34.985   7.084   2.215  1.00 20.00     0.017 C 
HETATM    4  C4  UNL     1     -33.362   7.893   3.748  1.00 20.00     0.013 C 
HETATM    5  C5  UNL     1     -34.622   7.001   3.700  1.00 20.00     0.009 C 
HETATM    6  C6  UNL     1     -33.626   6.545   1.752  1.00 20.00     0.012 C 
HETATM    7  C7  UNL     1     -32.637   7.543   2.409  1.00 20.00    -0.010 C 
HETATM    8  C8  UNL     1     -32.376   8.776   1.552  1.00 20.00     0.010 C 
ENDROOT
TORSDOF 0
