REMARK  1 active torsions:
REMARK  status: ('A' for Active; 'I' for Inactive)
REMARK    1  A    between atoms: C1_1  and  C3_3 
ROOT
HETATM    1  C1  UNL     1     -33.770   6.106   2.852  1.00 20.00     0.043 C 
HETATM    2  C2  UNL     1     -33.262   7.331   3.032  1.00 20.00     0.183 C 
HETATM    3  F4  UNL     1     -33.448   7.973   4.206  1.00 20.00    -0.193 F 
HETATM    4 CL5  UNL     1     -32.370   8.119   1.787  1.00 20.00    -0.052 Cl
ENDROOT
BRANCH   1   5
HETATM    5  C3  UNL     1     -34.544   5.362   3.891  1.00 20.00     0.145 C 
HETATM    6 CL6  UNL     1     -33.719   3.839   4.285  1.00 20.00    -0.126 Cl
ENDBRANCH   1   5
TORSDOF 1
