REMARK  0 active torsions:
REMARK  status: ('A' for Active; 'I' for Inactive)
ROOT
HETATM    1  C1  UNL     1     -34.074   5.760   3.711  1.00 20.00     0.006 C 
HETATM    2  C2  UNL     1     -32.973   4.987   2.984  1.00 20.00     0.009 C 
HETATM    3  C3  UNL     1     -33.857   7.249   3.612  1.00 20.00    -0.005 A 
HETATM    4  C4  UNL     1     -32.572   7.818   3.096  1.00 20.00    -0.000 A 
HETATM    5  C5  UNL     1     -33.854   7.881   2.261  1.00 20.00    -0.000 A 
HETATM    6  C6  UNL     1     -32.641   7.167   1.748  1.00 20.00     0.003 A 
HETATM    7  C7  UNL     1     -32.612   5.640   1.626  1.00 20.00    -0.043 C 
HETATM    8  C8  UNL     1     -31.194   5.192   1.223  1.00 20.00     0.015 C 
HETATM    9  C9  UNL     1     -33.591   5.177   0.532  1.00 20.00     0.015 C 
ENDROOT
TORSDOF 0
