REMARK  3 active torsions:
REMARK  status: ('A' for Active; 'I' for Inactive)
REMARK    1  A    between atoms: C1_1  and  C3_3 
REMARK    2  A    between atoms: C1_1  and  C4_4 
REMARK    3  A    between atoms: C2_2  and  C3_3 
ROOT
HETATM    1  C1  UNL     1     -33.730   7.460   1.955  1.00 20.00     0.197 C 
ENDROOT
BRANCH   1   2
HETATM    2  C3  UNL     1     -32.234   7.530   1.673  1.00 20.00     0.264 C 
HETATM    3  F5  UNL     1     -31.705   6.282   1.744  1.00 20.00    -0.205 F 
HETATM    4  F6  UNL     1     -31.629   8.274   2.633  1.00 20.00    -0.205 F 
BRANCH   2   5
HETATM    5  C2  UNL     1     -31.939   8.128   0.308  1.00 20.00     0.193 C 
HETATM    6 CL10 UNL     1     -32.612   9.773   0.183  1.00 20.00    -0.124 Cl
ENDBRANCH   2   5
ENDBRANCH   1   2
BRANCH   1   7
HETATM    7  C4  UNL     1     -34.037   6.846   3.306  1.00 20.00     0.393 C 
HETATM    8  F7  UNL     1     -35.366   6.764   3.522  1.00 20.00    -0.171 F 
HETATM    9  F8  UNL     1     -33.533   5.594   3.380  1.00 20.00    -0.171 F 
HETATM   10  F9  UNL     1     -33.493   7.564   4.311  1.00 20.00    -0.171 F 
ENDBRANCH   1   7
TORSDOF 3
