REMARK  0 active torsions:
REMARK  status: ('A' for Active; 'I' for Inactive)
ROOT
HETATM    1  C1  UNL     1     -32.534   5.460   1.567  1.00 20.00    -0.080 C 
HETATM    2  C2  UNL     1     -32.801   4.589   0.587  1.00 20.00     0.015 C 
HETATM    3  C3  UNL     1     -31.515   6.562   1.469  1.00 20.00     0.043 C 
HETATM    4  C4  UNL     1     -35.182   6.489   3.998  1.00 20.00     0.002 C 
HETATM    5  C5  UNL     1     -34.108   7.570   4.061  1.00 20.00     0.006 C 
HETATM    6  C6  UNL     1     -34.792   5.628   2.805  1.00 20.00     0.014 C 
HETATM    7  C7  UNL     1     -32.846   6.953   3.440  1.00 20.00     0.006 C 
HETATM    8  C8  UNL     1     -33.261   5.560   2.888  1.00 20.00    -0.017 C 
HETATM    9  C9  UNL     1     -32.178   7.711   2.254  1.00 20.00    -0.040 C 
HETATM   10  C10 UNL     1     -32.805   4.437   3.834  1.00 20.00     0.020 C 
HETATM   11  C11 UNL     1     -31.121   8.700   2.765  1.00 20.00     0.015 C 
HETATM   12  C12 UNL     1     -33.144   8.479   1.329  1.00 20.00     0.015 C 
ENDROOT
TORSDOF 0
