REMARK  2 active torsions:
REMARK  status: ('A' for Active; 'I' for Inactive)
REMARK    1  A    between atoms: C1_1  and  C2_2 
REMARK    2  A    between atoms: C1_1  and  C3_3 
ROOT
HETATM    1  C1  UNL     1     -33.736   7.485   2.353  1.00 20.00     0.386 C 
HETATM    2  F4  UNL     1     -34.354   8.643   2.726  1.00 20.00    -0.191 F 
HETATM    3  F5  UNL     1     -34.434   7.025   1.274  1.00 20.00    -0.191 F 
ENDROOT
BRANCH   1   4
HETATM    4  C2  UNL     1     -33.921   6.484   3.486  1.00 20.00     0.390 C 
HETATM    5  F6  UNL     1     -33.288   6.968   4.590  1.00 20.00    -0.181 F 
HETATM    6  F7  UNL     1     -33.311   5.310   3.189  1.00 20.00    -0.181 F 
HETATM    7 CL9  UNL     1     -35.617   6.184   3.896  1.00 20.00    -0.042 Cl
ENDBRANCH   1   4
BRANCH   1   8
HETATM    8  C3  UNL     1     -32.310   7.811   1.904  1.00 20.00     0.328 C 
HETATM    9  F8  UNL     1     -31.611   8.332   2.947  1.00 20.00    -0.200 F 
HETATM   10 CL10 UNL     1     -32.271   8.977   0.558  1.00 20.00    -0.059 Cl
HETATM   11 CL11 UNL     1     -31.474   6.317   1.385  1.00 20.00    -0.059 Cl
ENDBRANCH   1   8
TORSDOF 2
