REMARK  1 active torsions:
REMARK  status: ('A' for Active; 'I' for Inactive)
REMARK    1  A    between atoms: C4_4  and  C6_6 
ROOT
HETATM    1  C1  UNL     1     -33.378   5.598   2.858  1.00 20.00     0.279 C 
HETATM    2  C2  UNL     1     -32.892   7.874   3.526  1.00 20.00     0.284 C 
HETATM    3  C3  UNL     1     -32.651   5.665   1.520  1.00 20.00     0.104 C 
HETATM    4  C4  UNL     1     -32.063   8.262   2.294  1.00 20.00     0.075 C 
HETATM    5  N7  UNL     1     -33.939   6.882   3.276  1.00 20.00     0.085 N 
HETATM    6  S8  UNL     1     -31.230   6.797   1.584  1.00 20.00    -0.161 SA
HETATM    7  H21 UNL     1     -34.549   7.228   2.538  1.00 20.00     0.315 HD
ENDROOT
BRANCH   4   8
HETATM    8  C6  UNL     1     -32.879   8.983   1.222  1.00 20.00     0.012 C 
HETATM    9  C5  UNL     1     -32.037   9.357   0.045  1.00 20.00     0.006 C 
ENDBRANCH   4   8
TORSDOF 1
