REMARK  0 active torsions:
REMARK  status: ('A' for Active; 'I' for Inactive)
ROOT
HETATM    1  C1  UNL     1     -33.407   7.465   3.789  1.00 20.00     0.014 C 
HETATM    2  C2  UNL     1     -33.548   5.481   2.223  1.00 20.00     0.014 C 
HETATM    3  C3  UNL     1     -32.377   7.971   2.815  1.00 20.00    -0.004 A 
HETATM    4  C4  UNL     1     -32.502   6.220   1.433  1.00 20.00    -0.004 A 
HETATM    5  C5  UNL     1     -32.510   7.710   1.352  1.00 20.00    -0.001 A 
HETATM    6  C6  UNL     1     -31.458   6.983   2.178  1.00 20.00    -0.001 A 
HETATM    7  C7  UNL     1     -34.351   6.409   3.166  1.00 20.00    -0.046 C 
HETATM    8  C8  UNL     1     -35.491   7.102   2.390  1.00 20.00     0.015 C 
HETATM    9  C9  UNL     1     -34.991   5.570   4.286  1.00 20.00     0.015 C 
ENDROOT
TORSDOF 0
