REMARK  0 active torsions:
REMARK  status: ('A' for Active; 'I' for Inactive)
ROOT
HETATM    1  C1  UNL     1     -34.961   6.718   4.340  1.00 20.00     0.004 C 
HETATM    2  C2  UNL     1     -34.403   7.943   4.099  1.00 20.00    -0.017 C 
HETATM    3  C3  UNL     1     -32.405   8.245   2.146  1.00 20.00    -0.021 C 
HETATM    4  C4  UNL     1     -31.912   7.148   1.485  1.00 20.00    -0.024 C 
HETATM    5  C5  UNL     1     -34.003   4.472   3.199  1.00 20.00    -0.019 C 
HETATM    6  C6  UNL     1     -34.256   5.723   3.585  1.00 20.00    -0.056 C 
HETATM    7  C7  UNL     1     -32.947   4.505   2.044  1.00 20.00     0.036 C 
HETATM    8  C8  UNL     1     -33.059   7.802   3.428  1.00 20.00     0.039 C 
HETATM    9  C9  UNL     1     -32.249   5.874   2.249  1.00 20.00     0.020 C 
HETATM   10  C10 UNL     1     -33.480   6.566   2.715  1.00 20.00     0.037 C 
ENDROOT
TORSDOF 0
