REMARK  0 active torsions:
REMARK  status: ('A' for Active; 'I' for Inactive)
ROOT
HETATM    1  C1  UNL     1     -32.146   7.645   0.476  1.00 20.00    -0.019 A 
HETATM    2  C2  UNL     1     -32.604   8.882   0.709  1.00 20.00    -0.086 A 
HETATM    3  C3  UNL     1     -33.638   6.880   3.070  1.00 20.00     0.132 C 
HETATM    4  C4  UNL     1     -32.796   9.188   2.169  1.00 20.00     0.046 A 
HETATM    5  C5  UNL     1     -33.029   5.856   2.098  1.00 20.00     0.088 C 
HETATM    6  C6  UNL     1     -31.953   6.913   1.748  1.00 20.00     0.027 A 
HETATM    7  C7  UNL     1     -32.468   7.869   2.869  1.00 20.00     0.067 A 
HETATM    8  C8  UNL     1     -32.911   9.911  -0.320  1.00 20.00     0.043 C 
HETATM    9  O9  UNL     1     -34.655   6.905   3.731  1.00 20.00    -0.298 OA
ENDROOT
TORSDOF 0
