REMARK  3 active torsions:
REMARK  status: ('A' for Active; 'I' for Inactive)
REMARK    1  A    between atoms: C2_2  and  C5_5 
REMARK    2  A    between atoms: C4_4  and  C5_5 
REMARK    3  A    between atoms: C4_4  and  C6_6 
ROOT
HETATM    1  C4  UNL     1     -33.696   6.788   2.128  1.00 20.00     0.353 C 
HETATM    2  F7  UNL     1     -33.569   5.484   1.737  1.00 20.00    -0.233 F 
ENDROOT
BRANCH   1   3
HETATM    3  C5  UNL     1     -32.348   7.463   1.893  1.00 20.00     0.300 C 
HETATM    4  F8  UNL     1     -31.432   6.504   1.583  1.00 20.00    -0.198 F 
HETATM    5  F9  UNL     1     -31.939   7.992   3.082  1.00 20.00    -0.198 F 
BRANCH   3   6
HETATM    6  C2  UNL     1     -32.387   8.552   0.862  1.00 20.00     0.050 C 
HETATM    7  C1  UNL     1     -32.639   9.841   1.129  1.00 20.00    -0.029 C 
HETATM    8  C3  UNL     1     -32.677  10.912   0.089  1.00 20.00     0.036 C 
ENDBRANCH   3   6
ENDBRANCH   1   3
BRANCH   1   9
HETATM    9  C6  UNL     1     -34.164   6.777   3.567  1.00 20.00     0.424 C 
HETATM   10  F10 UNL     1     -35.299   6.064   3.721  1.00 20.00    -0.168 F 
HETATM   11  F11 UNL     1     -33.228   6.253   4.386  1.00 20.00    -0.168 F 
HETATM   12  F12 UNL     1     -34.420   8.036   3.987  1.00 20.00    -0.168 F 
ENDBRANCH   1   9
TORSDOF 3
