REMARK  0 active torsions:
REMARK  status: ('A' for Active; 'I' for Inactive)
ROOT
HETATM    1  C1  UNL     1     -30.813   8.115   2.348  1.00 20.00    -0.019 A 
HETATM    2  C2  UNL     1     -31.410   8.828   3.320  1.00 20.00    -0.019 A 
HETATM    3  C3  UNL     1     -33.758   5.834   2.216  1.00 20.00    -0.023 C 
HETATM    4  C4  UNL     1     -34.364   6.538   3.189  1.00 20.00    -0.086 C 
HETATM    5  C5  UNL     1     -32.340   6.117   1.813  1.00 20.00     0.042 C 
HETATM    6  C6  UNL     1     -33.611   7.633   3.902  1.00 20.00     0.048 C 
HETATM    7  C7  UNL     1     -32.278   9.679   0.189  1.00 20.00     0.001 C 
HETATM    8  C8  UNL     1     -32.962  10.484   1.296  1.00 20.00     0.001 C 
HETATM    9  C9  UNL     1     -32.433   8.165   0.311  1.00 20.00     0.015 C 
HETATM   10  C10 UNL     1     -33.683   9.642   2.346  1.00 20.00     0.015 C 
HETATM   11  C11 UNL     1     -32.128   7.642   1.728  1.00 20.00    -0.009 A 
HETATM   12  C12 UNL     1     -32.828   8.473   2.871  1.00 20.00    -0.008 A 
HETATM   13  C13 UNL     1     -35.768   6.266   3.631  1.00 20.00     0.043 C 
ENDROOT
TORSDOF 0
