REMARK  1 active torsions:
REMARK  status: ('A' for Active; 'I' for Inactive)
REMARK    1  A    between atoms: C2_2  and  C3_3 
ROOT
HETATM    1  C1  UNL     1     -33.983   7.493   3.538  1.00 20.00     0.105 C 
HETATM    2  C2  UNL     1     -33.160   7.009   2.601  1.00 20.00     0.036 C 
HETATM    3 CL4  UNL     1     -35.169   6.584   4.376  1.00 20.00    -0.096 Cl
HETATM    4 CL5  UNL     1     -32.024   8.097   1.858  1.00 20.00    -0.087 Cl
ENDROOT
BRANCH   2   5
HETATM    5  C3  UNL     1     -33.130   5.610   2.068  1.00 20.00     0.166 C 
HETATM    6 CL6  UNL     1     -31.861   5.444   0.834  1.00 20.00    -0.125 Cl
ENDBRANCH   2   5
TORSDOF 1
