REMARK  2 active torsions:
REMARK  status: ('A' for Active; 'I' for Inactive)
REMARK    1  A    between atoms: C7_7  and  C9_9 
REMARK    2  A    between atoms: C8_8  and  C10_10 
ROOT
HETATM    1  C1  UNL     1     -34.596   7.276   4.564  1.00 20.00    -0.030 C 
HETATM    2  C2  UNL     1     -34.836   6.499   3.483  1.00 20.00    -0.025 C 
HETATM    3  C5  UNL     1     -33.236   7.974   4.473  1.00 20.00     0.032 C 
HETATM    4  C9  UNL     1     -33.577   6.436   2.695  1.00 20.00     0.020 C 
HETATM    5  C10 UNL     1     -33.127   7.896   2.973  1.00 20.00     0.005 C 
ENDROOT
BRANCH   4   6
HETATM    6  C7  UNL     1     -33.134   6.286   1.218  1.00 20.00     0.016 C 
HETATM    7  C3  UNL     1     -31.661   5.904   1.362  1.00 20.00    -0.025 C 
HETATM    8  C4  UNL     1     -31.017   6.970   1.874  1.00 20.00    -0.025 C 
HETATM    9  C8  UNL     1     -32.005   8.109   1.957  1.00 20.00     0.013 C 
HETATM   10  C6  UNL     1     -32.860   7.711   0.714  1.00 20.00     0.018 C 
ENDBRANCH   4   6
TORSDOF 2
