REMARK  3 active torsions:
REMARK  status: ('A' for Active; 'I' for Inactive)
REMARK    1  A    between atoms: C2_2  and  C8_8 
REMARK    2  A    between atoms: C6_6  and  C7_7 
REMARK    3  A    between atoms: C7_7  and  C8_8 
ROOT
HETATM    1  C5  UNL     1     -35.507   6.051   4.140  1.00 20.00     0.014 C 
HETATM    2  C8  UNL     1     -34.053   6.039   3.659  1.00 20.00     0.004 C 
ENDROOT
BRANCH   2   3
HETATM    3  C2  UNL     1     -33.522   7.452   3.641  1.00 20.00    -0.027 C 
HETATM    4  C1  UNL     1     -32.613   7.895   2.761  1.00 20.00    -0.035 C 
HETATM    5  C3  UNL     1     -32.013   7.048   1.688  1.00 20.00     0.036 C 
ENDBRANCH   2   3
BRANCH   2   6
HETATM    6  C7  UNL     1     -33.205   5.120   4.560  1.00 20.00     0.008 C 
BRANCH   6   7
HETATM    7  C6  UNL     1     -33.436   3.630   4.286  1.00 20.00    -0.004 C 
HETATM    8  C4  UNL     1     -32.638   2.759   5.244  1.00 20.00     0.005 C 
ENDBRANCH   6   7
ENDBRANCH   2   6
TORSDOF 3
