REMARK  0 active torsions:
REMARK  status: ('A' for Active; 'I' for Inactive)
ROOT
HETATM    1  C1  UNL     1     -32.465   7.540   1.787  1.00 20.00    -0.080 C 
HETATM    2  C2  UNL     1     -32.464   8.681   1.087  1.00 20.00     0.015 C 
HETATM    3  C3  UNL     1     -31.679   6.314   1.414  1.00 20.00     0.043 C 
HETATM    4  C4  UNL     1     -35.477   6.486   3.736  1.00 20.00     0.002 C 
HETATM    5  C5  UNL     1     -34.648   5.223   3.526  1.00 20.00     0.006 C 
HETATM    6  C6  UNL     1     -34.817   7.533   2.850  1.00 20.00     0.014 C 
HETATM    7  C7  UNL     1     -33.237   5.699   3.147  1.00 20.00     0.006 C 
HETATM    8  C8  UNL     1     -33.317   7.245   3.001  1.00 20.00    -0.017 C 
HETATM    9  C9  UNL     1     -32.625   5.165   1.818  1.00 20.00    -0.040 C 
HETATM   10  C10 UNL     1     -32.738   7.945   4.241  1.00 20.00     0.020 C 
HETATM   11  C11 UNL     1     -31.836   3.872   2.062  1.00 20.00     0.015 C 
HETATM   12  C12 UNL     1     -33.634   4.903   0.681  1.00 20.00     0.015 C 
ENDROOT
TORSDOF 0
