REMARK  0 active torsions:
REMARK  status: ('A' for Active; 'I' for Inactive)
ROOT
HETATM    1  C1  UNL     1     -32.251   6.202   1.526  1.00 20.00     0.135 C 
HETATM    2  C2  UNL     1     -33.556   5.571   1.111  1.00 20.00     0.080 C 
HETATM    3  C3  UNL     1     -34.318   4.993   2.297  1.00 20.00     0.016 C 
HETATM    4  C4  UNL     1     -31.645   7.997   3.275  1.00 20.00     0.023 A 
HETATM    5  C5  UNL     1     -33.795   6.795   4.052  1.00 20.00     0.014 C 
HETATM    6  C6  UNL     1     -33.144   7.884   3.249  1.00 20.00     0.003 A 
HETATM    7  C7  UNL     1     -32.343   7.619   1.984  1.00 20.00     0.021 A 
HETATM    8  C8  UNL     1     -34.908   6.007   3.317  1.00 20.00    -0.047 C 
HETATM    9  C9  UNL     1     -32.365   8.678   0.908  1.00 20.00     0.024 C 
HETATM   10  C10 UNL     1     -35.925   6.950   2.648  1.00 20.00     0.015 C 
HETATM   11  C11 UNL     1     -35.670   5.184   4.383  1.00 20.00     0.015 C 
HETATM   12  O12 UNL     1     -31.175   5.618   1.486  1.00 20.00    -0.297 OA
ENDROOT
TORSDOF 0
