REMARK  0 active torsions:
REMARK  status: ('A' for Active; 'I' for Inactive)
ROOT
HETATM    1  C1  UNL     1     -32.854   5.165   2.226  1.00 20.00    -0.018 C 
HETATM    2  C2  UNL     1     -34.350   7.948   4.580  1.00 20.00    -0.018 C 
HETATM    3  C3  UNL     1     -32.806   6.473   1.839  1.00 20.00    -0.078 C 
HETATM    4  C4  UNL     1     -35.046   6.792   4.374  1.00 20.00    -0.078 C 
HETATM    5  C5  UNL     1     -31.697   7.503   1.707  1.00 20.00     0.035 C 
HETATM    6  C6  UNL     1     -35.364   5.576   5.229  1.00 20.00     0.035 C 
HETATM    7  C7  UNL     1     -32.229   8.707   2.651  1.00 20.00     0.013 C 
HETATM    8  C8  UNL     1     -34.782   4.361   4.331  1.00 20.00     0.013 C 
HETATM    9  C9  UNL     1     -33.784   5.106   3.438  1.00 20.00     0.017 C 
HETATM   10  C10 UNL     1     -33.218   7.960   3.552  1.00 20.00     0.017 C 
HETATM   11  C11 UNL     1     -33.923   7.238   2.417  1.00 20.00     0.030 C 
HETATM   12  C12 UNL     1     -34.744   6.219   3.054  1.00 20.00     0.030 C 
ENDROOT
TORSDOF 0
