REMARK  1 active torsions:
REMARK  status: ('A' for Active; 'I' for Inactive)
REMARK    1  A    between atoms: C7_7  and  O9_9 
ROOT
HETATM    1  C1  UNL     1     -34.015   7.409   4.215  1.00 20.00    -0.019 A 
HETATM    2  C2  UNL     1     -34.104   6.208   3.612  1.00 20.00    -0.080 A 
HETATM    3  C3  UNL     1     -32.650   8.781   2.474  1.00 20.00     0.012 C 
HETATM    4  C4  UNL     1     -31.820   7.588   2.017  1.00 20.00     0.033 C 
HETATM    5  C5  UNL     1     -33.989   8.183   2.913  1.00 20.00     0.019 A 
HETATM    6  C6  UNL     1     -34.109   6.809   2.211  1.00 20.00     0.050 A 
HETATM    7  C7  UNL     1     -32.850   6.681   1.350  1.00 20.00     0.127 C 
HETATM    8  C8  UNL     1     -34.184   4.761   4.134  1.00 20.00     0.043 C 
ENDROOT
BRANCH   7   9
HETATM    9  O9  UNL     1     -32.412   5.335   1.300  1.00 20.00    -0.395 OA
HETATM   10  H21 UNL     1     -31.587   5.323   0.786  1.00 20.00     0.210 HD
ENDBRANCH   7   9
TORSDOF 1
