REMARK  1 active torsions:
REMARK  status: ('A' for Active; 'I' for Inactive)
REMARK    1  A    between atoms: C2_2  and  C10_10 
ROOT
HETATM    1  C1  UNL     1     -33.584   8.942   2.005  1.00 20.00    -0.018 A 
HETATM    2  C2  UNL     1     -32.523   9.002   1.176  1.00 20.00    -0.075 A 
HETATM    3  C3  UNL     1     -33.002   5.940   1.438  1.00 20.00     0.001 C 
HETATM    4  C4  UNL     1     -33.512   6.455   2.780  1.00 20.00     0.009 C 
HETATM    5  C5  UNL     1     -31.613   6.559   1.320  1.00 20.00     0.010 C 
HETATM    6  C6  UNL     1     -32.967   7.879   2.892  1.00 20.00     0.016 A 
HETATM    7  C7  UNL     1     -31.744   7.947   1.949  1.00 20.00     0.022 A 
ENDROOT
BRANCH   2   8
HETATM    8  C10 UNL     1     -32.202   9.824  -0.087  1.00 20.00     0.006 C 
HETATM    9  C8  UNL     1     -32.644   9.041  -1.302  1.00 20.00     0.014 C 
HETATM   10  C9  UNL     1     -32.878  11.173   0.009  1.00 20.00     0.014 C 
ENDBRANCH   2   8
TORSDOF 1
