REMARK  0 active torsions:
REMARK  status: ('A' for Active; 'I' for Inactive)
ROOT
HETATM    1  C1  UNL     1     -30.765   8.482   2.093  1.00 20.00    -0.019 A 
HETATM    2  C2  UNL     1     -31.042   7.352   1.418  1.00 20.00    -0.019 A 
HETATM    3  C3  UNL     1     -33.673   7.853   4.340  1.00 20.00    -0.023 C 
HETATM    4  C4  UNL     1     -33.958   6.720   3.675  1.00 20.00    -0.086 C 
HETATM    5  C5  UNL     1     -32.424   8.636   4.051  1.00 20.00     0.042 C 
HETATM    6  C6  UNL     1     -33.008   6.210   2.620  1.00 20.00     0.048 C 
HETATM    7  C7  UNL     1     -32.754  10.063   0.420  1.00 20.00     0.001 C 
HETATM    8  C8  UNL     1     -33.075   8.774  -0.340  1.00 20.00     0.001 C 
HETATM    9  C9  UNL     1     -32.900   9.963   1.936  1.00 20.00     0.015 C 
HETATM   10  C10 UNL     1     -33.482   7.596   0.542  1.00 20.00     0.015 C 
HETATM   11  C11 UNL     1     -32.213   8.717   2.526  1.00 20.00    -0.009 A 
HETATM   12  C12 UNL     1     -32.537   7.388   1.741  1.00 20.00    -0.008 A 
HETATM   13  C13 UNL     1     -35.181   5.903   3.954  1.00 20.00     0.043 C 
ENDROOT
TORSDOF 0
