REMARK  0 active torsions:
REMARK  status: ('A' for Active; 'I' for Inactive)
ROOT
HETATM    1  C1  UNL     1     -32.628   9.682   0.837  1.00 20.00     0.123 C 
HETATM    2  C2  UNL     1     -31.577   5.904   1.369  1.00 20.00     0.123 C 
HETATM    3  C3  UNL     1     -34.035   7.653   3.930  1.00 20.00     0.123 C 
HETATM    4  C4  UNL     1     -32.796   9.223   2.282  1.00 20.00     0.296 C 
HETATM    5  C5  UNL     1     -31.462   7.425   1.347  1.00 20.00     0.296 C 
HETATM    6  C6  UNL     1     -32.746   7.056   3.373  1.00 20.00     0.296 C 
HETATM    7  N7  UNL     1     -31.952   8.046   2.603  1.00 20.00     0.133 N 
HETATM    8  S8  UNL     1     -32.327   8.163  -0.072  1.00 20.00    -0.130 SA
HETATM    9  S9  UNL     1     -33.052   5.589   2.343  1.00 20.00    -0.130 SA
HETATM   10  S10 UNL     1     -34.529   8.858   2.694  1.00 20.00    -0.130 SA
ENDROOT
TORSDOF 0
