REMARK  0 active torsions:
REMARK  status: ('A' for Active; 'I' for Inactive)
ROOT
HETATM    1  C1  UNL     1     -31.492   7.476   1.334  1.00 20.00    -0.021 C 
HETATM    2  C2  UNL     1     -31.509   6.126   1.460  1.00 20.00    -0.021 C 
HETATM    3  C3  UNL     1     -32.465   8.535   3.564  1.00 20.00    -0.021 C 
HETATM    4  C4  UNL     1     -33.350   7.882   4.357  1.00 20.00    -0.021 C 
HETATM    5  C5  UNL     1     -33.303   4.801   3.067  1.00 20.00    -0.015 C 
HETATM    6  C6  UNL     1     -34.250   5.443   3.799  1.00 20.00    -0.079 C 
HETATM    7  C7  UNL     1     -32.614   8.162   2.107  1.00 20.00     0.036 C 
HETATM    8  C8  UNL     1     -32.378   5.848   2.611  1.00 20.00     0.036 C 
HETATM    9  C9  UNL     1     -34.254   6.957   3.574  1.00 20.00     0.042 C 
HETATM   10  C10 UNL     1     -33.443   6.924   2.308  1.00 20.00     0.020 C 
HETATM   11  C11 UNL     1     -35.287   4.808   4.654  1.00 20.00     0.044 C 
ENDROOT
TORSDOF 0
