REMARK  2 active torsions:
REMARK  status: ('A' for Active; 'I' for Inactive)
REMARK    1  A    between atoms: C7_7  and  C10_10 
REMARK    2  A    between atoms: C8_8  and  C9_9 
ROOT
HETATM    1  C1  UNL     1     -33.568   6.157   2.627  1.00 20.00    -0.019 C 
HETATM    2  C3  UNL     1     -34.439   6.379   3.641  1.00 20.00    -0.087 C 
HETATM    3  C5  UNL     1     -34.470   7.860   4.050  1.00 20.00     0.039 C 
HETATM    4  C8  UNL     1     -33.118   7.484   2.133  1.00 20.00     0.021 C 
HETATM    5  C10 UNL     1     -33.100   8.190   3.515  1.00 20.00     0.005 C 
HETATM    6  C11 UNL     1     -35.271   5.373   4.348  1.00 20.00     0.043 C 
ENDROOT
BRANCH   4   7
HETATM    7  C9  UNL     1     -31.863   8.117   1.479  1.00 20.00     0.022 C 
HETATM    8  C4  UNL     1     -32.419   9.433   0.925  1.00 20.00    -0.082 C 
HETATM    9  C2  UNL     1     -32.762  10.203   1.977  1.00 20.00    -0.019 C 
HETATM   10  C12 UNL     1     -32.607   9.686  -0.521  1.00 20.00     0.043 C 
HETATM   11  C7  UNL     1     -32.333   9.481   3.233  1.00 20.00     0.014 C 
HETATM   12  C6  UNL     1     -31.080   8.773   2.628  1.00 20.00     0.018 C 
ENDBRANCH   4   7
TORSDOF 2
