REMARK  0 active torsions:
REMARK  status: ('A' for Active; 'I' for Inactive)
ROOT
HETATM    1  C1  UNL     1     -35.032   6.981   4.768  1.00 20.00    -0.021 C 
HETATM    2  C2  UNL     1     -33.927   4.846   3.736  1.00 20.00    -0.021 C 
HETATM    3  C3  UNL     1     -34.242   8.052   4.532  1.00 20.00    -0.025 C 
HETATM    4  C4  UNL     1     -33.076   4.882   2.687  1.00 20.00    -0.025 C 
HETATM    5  C5  UNL     1     -32.636   8.359   2.262  1.00 20.00     0.009 C 
HETATM    6  C6  UNL     1     -32.283   7.089   1.416  1.00 20.00     0.009 C 
HETATM    7  C7  UNL     1     -34.956   5.941   3.668  1.00 20.00     0.035 C 
HETATM    8  C8  UNL     1     -33.337   7.696   3.418  1.00 20.00     0.013 C 
HETATM    9  C9  UNL     1     -33.370   6.019   1.731  1.00 20.00     0.013 C 
HETATM   10  C10 UNL     1     -34.307   6.805   2.615  1.00 20.00     0.012 C 
ENDROOT
TORSDOF 0
