REMARK  1 active torsions:
REMARK  status: ('A' for Active; 'I' for Inactive)
REMARK    1  A    between atoms: C1_1  and  C4_4 
ROOT
HETATM    1  C3  UNL     1     -31.156   8.834   1.832  1.00 20.00     0.018 A 
HETATM    2  C4  UNL     1     -32.556   8.290   1.937  1.00 20.00     0.017 A 
HETATM    3  C5  UNL     1     -32.069   8.893   0.632  1.00 20.00    -0.040 A 
HETATM    4  C8  UNL     1     -32.632  10.235   0.241  1.00 20.00     0.015 C 
HETATM    5  C9  UNL     1     -31.736   8.008  -0.543  1.00 20.00     0.015 C 
ENDROOT
BRANCH   2   6
HETATM    6  C1  UNL     1     -32.747   6.853   2.075  1.00 20.00    -0.019 C 
HETATM    7  C2  UNL     1     -33.664   6.212   2.825  1.00 20.00    -0.091 C 
HETATM    8  C6  UNL     1     -33.730   4.710   2.858  1.00 20.00     0.042 C 
HETATM    9  C7  UNL     1     -34.683   6.912   3.679  1.00 20.00     0.042 C 
ENDBRANCH   2   6
TORSDOF 1
