REMARK  0 active torsions:
REMARK  status: ('A' for Active; 'I' for Inactive)
ROOT
HETATM    1  C1  UNL     1     -33.574   4.154   3.627  1.00 20.00     0.004 C 
HETATM    2  C2  UNL     1     -34.636   4.818   4.499  1.00 20.00     0.005 C 
HETATM    3  C3  UNL     1     -32.585   5.181   3.070  1.00 20.00     0.042 C 
HETATM    4  C4  UNL     1     -34.582   7.373   4.122  1.00 20.00     0.013 A 
HETATM    5  C5  UNL     1     -35.236   6.038   3.866  1.00 20.00    -0.007 A 
HETATM    6  C6  UNL     1     -34.538   6.771   2.743  1.00 20.00     0.029 A 
HETATM    7  C7  UNL     1     -33.278   6.200   2.154  1.00 20.00     0.117 C 
HETATM    8 CL8  UNL     1     -32.155   7.547   1.788  1.00 20.00    -0.101 Cl
HETATM    9 CL9  UNL     1     -33.714   5.412   0.594  1.00 20.00    -0.101 Cl
ENDROOT
TORSDOF 0
