REMARK  0 active torsions:
REMARK  status: ('A' for Active; 'I' for Inactive)
ROOT
HETATM    1  C1  UNL     1     -34.389   6.158   3.697  1.00 20.00     0.131 C 
HETATM    2  C2  UNL     1     -34.452   7.663   3.884  1.00 20.00     0.079 C 
HETATM    3  C3  UNL     1     -33.965   8.408   2.637  1.00 20.00     0.016 C 
HETATM    4  C4  UNL     1     -31.526   5.587   1.379  1.00 20.00     0.006 C 
HETATM    5  C5  UNL     1     -31.886   4.127   1.690  1.00 20.00     0.005 C 
HETATM    6  C6  UNL     1     -33.066   5.631   3.182  1.00 20.00     0.064 C 
HETATM    7  C7  UNL     1     -32.727   6.375   1.889  1.00 20.00     0.005 C 
HETATM    8  C8  UNL     1     -33.022   4.168   2.734  1.00 20.00    -0.007 C 
HETATM    9  C9  UNL     1     -32.601   7.905   2.082  1.00 20.00    -0.043 C 
HETATM   10  C10 UNL     1     -32.790   3.197   3.884  1.00 20.00     0.011 C 
HETATM   11  C11 UNL     1     -32.343   8.580   0.720  1.00 20.00     0.015 C 
HETATM   12  C12 UNL     1     -31.461   8.313   3.033  1.00 20.00     0.015 C 
HETATM   13  O13 UNL     1     -35.316   5.425   4.034  1.00 20.00    -0.298 OA
ENDROOT
TORSDOF 0
