REMARK  0 active torsions:
REMARK  status: ('A' for Active; 'I' for Inactive)
ROOT
HETATM    1  C1  UNL     1     -33.720   9.372   3.146  1.00 20.00    -0.018 C 
HETATM    2  C2  UNL     1     -33.069   6.076   1.235  1.00 20.00    -0.018 C 
HETATM    3  C3  UNL     1     -32.680   9.275   2.275  1.00 20.00    -0.078 C 
HETATM    4  C4  UNL     1     -33.403   6.048   2.538  1.00 20.00    -0.078 C 
HETATM    5  C5  UNL     1     -32.651   9.776   0.867  1.00 20.00     0.035 C 
HETATM    6  C6  UNL     1     -34.616   5.604   3.326  1.00 20.00     0.035 C 
HETATM    7  C7  UNL     1     -32.819   8.445   0.074  1.00 20.00     0.013 C 
HETATM    8  C8  UNL     1     -34.960   6.939   4.134  1.00 20.00     0.013 C 
HETATM    9  C9  UNL     1     -34.184   7.959   3.305  1.00 20.00     0.017 C 
HETATM   10  C10 UNL     1     -32.190   7.297   0.911  1.00 20.00     0.017 C 
HETATM   11  C11 UNL     1     -31.979   7.949   2.277  1.00 20.00     0.030 C 
HETATM   12  C12 UNL     1     -32.851   7.217   3.232  1.00 20.00     0.030 C 
ENDROOT
TORSDOF 0
