REMARK  1 active torsions:
REMARK  status: ('A' for Active; 'I' for Inactive)
REMARK    1  A    between atoms: C5_5  and  O10_10 
ROOT
HETATM    1  C1  UNL     1     -32.560   9.174  -0.219  1.00 20.00     0.001 C 
HETATM    2  C2  UNL     1     -32.162   7.924   0.058  1.00 20.00    -0.018 C 
HETATM    3  C3  UNL     1     -32.844   9.655   2.241  1.00 20.00     0.046 C 
HETATM    4  C4  UNL     1     -31.488   7.460   2.487  1.00 20.00     0.024 A 
HETATM    5  C5  UNL     1     -33.267  10.007   0.808  1.00 20.00     0.141 C 
HETATM    6  C6  UNL     1     -32.437   7.230   1.338  1.00 20.00    -0.018 A 
HETATM    7  C7  UNL     1     -32.835   8.155   2.504  1.00 20.00    -0.030 A 
HETATM    8  C8  UNL     1     -33.065   5.866   1.199  1.00 20.00     0.020 C 
HETATM    9  C9  UNL     1     -33.856   7.702   3.516  1.00 20.00     0.016 C 
ENDROOT
BRANCH   5  10
HETATM   10  O10 UNL     1     -32.957  11.378   0.567  1.00 20.00    -0.392 OA
HETATM   11  H24 UNL     1     -33.426  11.889   1.244  1.00 20.00     0.210 HD
ENDBRANCH   5  10
TORSDOF 1
