REMARK  0 active torsions:
REMARK  status: ('A' for Active; 'I' for Inactive)
ROOT
HETATM    1  C1  UNL     1     -32.447   8.100   2.565  1.00 20.00     0.006 C 
HETATM    2  C2  UNL     1     -33.426   7.678   3.681  1.00 20.00     0.009 C 
HETATM    3  C3  UNL     1     -34.900   6.564   1.976  1.00 20.00     0.014 C 
HETATM    4  C4  UNL     1     -33.145   5.267   3.022  1.00 20.00     0.014 C 
HETATM    5  C5  UNL     1     -32.451   7.154   1.398  1.00 20.00    -0.006 A 
HETATM    6  C6  UNL     1     -33.746   6.487   1.015  1.00 20.00    -0.005 A 
HETATM    7  C7  UNL     1     -32.662   5.687   1.661  1.00 20.00    -0.005 A 
HETATM    8  C8  UNL     1     -34.189   6.372   3.345  1.00 20.00    -0.043 C 
HETATM    9  C9  UNL     1     -35.146   5.974   4.457  1.00 20.00     0.015 C 
ENDROOT
TORSDOF 0
