REMARK  0 active torsions:
REMARK  status: ('A' for Active; 'I' for Inactive)
ROOT
HETATM    1  C1  UNL     1     -34.195   5.468   3.707  1.00 20.00    -0.025 A 
HETATM    2  C2  UNL     1     -33.463   4.907   2.740  1.00 20.00    -0.025 A 
HETATM    3  C3  UNL     1     -33.778   7.847   4.510  1.00 20.00     0.009 C 
HETATM    4  C4  UNL     1     -31.544   6.147   1.645  1.00 20.00     0.009 C 
HETATM    5  C5  UNL     1     -32.363   8.068   3.987  1.00 20.00     0.005 C 
HETATM    6  C6  UNL     1     -31.394   7.665   1.637  1.00 20.00     0.005 C 
HETATM    7  C7  UNL     1     -34.437   6.928   3.481  1.00 20.00     0.013 A 
HETATM    8  C8  UNL     1     -33.054   5.891   1.693  1.00 20.00     0.013 A 
HETATM    9  C9  UNL     1     -32.557   8.172   2.474  1.00 20.00    -0.009 C 
HETATM   10  C10 UNL     1     -33.706   7.207   2.158  1.00 20.00     0.005 A 
ENDROOT
TORSDOF 0
