REMARK  1 active torsions:
REMARK  status: ('A' for Active; 'I' for Inactive)
REMARK    1  A    between atoms: C4_4  and  C5_5 
ROOT
HETATM    1  C1  UNL     1     -34.680   5.568   4.005  1.00 20.00     0.069 C 
HETATM    2  C2  UNL     1     -35.266   7.445   2.541  1.00 20.00     0.032 C 
HETATM    3  C3  UNL     1     -33.450   7.692   4.240  1.00 20.00     0.032 C 
HETATM    4  C5  UNL     1     -34.114   6.714   3.256  1.00 20.00     0.054 C 
HETATM    5  N6  UNL     1     -35.124   4.670   4.592  1.00 20.00    -0.196 NA
ENDROOT
BRANCH   4   6
HETATM    6  C4  UNL     1     -33.118   6.219   2.186  1.00 20.00     0.138 C 
HETATM    7 CL7  UNL     1     -32.383   7.531   1.223  1.00 20.00    -0.129 Cl
ENDBRANCH   4   6
TORSDOF 1
