REMARK  0 active torsions:
REMARK  status: ('A' for Active; 'I' for Inactive)
ROOT
HETATM    1  C1  UNL     1     -32.368   6.536   2.317  1.00 20.00     0.132 C 
HETATM    2  C2  UNL     1     -32.942   5.497   1.395  1.00 20.00     0.079 C 
HETATM    3  C3  UNL     1     -34.285   5.204   2.045  1.00 20.00     0.017 C 
HETATM    4  C4  UNL     1     -35.328   5.910   4.263  1.00 20.00     0.011 C 
HETATM    5  C5  UNL     1     -35.338   7.404   3.967  1.00 20.00     0.010 C 
HETATM    6  C6  UNL     1     -33.048   6.560   3.674  1.00 20.00     0.071 C 
HETATM    7  C7  UNL     1     -34.068   5.398   3.559  1.00 20.00    -0.033 C 
HETATM    8  C8  UNL     1     -33.858   7.833   4.043  1.00 20.00    -0.037 C 
HETATM    9  C9  UNL     1     -33.557   4.107   4.205  1.00 20.00     0.016 C 
HETATM   10  C10 UNL     1     -33.612   9.047   3.139  1.00 20.00     0.015 C 
HETATM   11  C11 UNL     1     -33.513   8.240   5.491  1.00 20.00     0.015 C 
HETATM   12  O12 UNL     1     -31.415   7.245   2.016  1.00 20.00    -0.298 OA
ENDROOT
TORSDOF 0
