REMARK  0 active torsions:
REMARK  status: ('A' for Active; 'I' for Inactive)
ROOT
HETATM    1  C1  UNL     1     -32.613   9.269   1.391  1.00 20.00     0.004 C 
HETATM    2  C2  UNL     1     -31.844   8.152   0.689  1.00 20.00     0.005 C 
HETATM    3  C3  UNL     1     -33.812   8.720   2.168  1.00 20.00     0.042 C 
HETATM    4  C4  UNL     1     -32.597   5.868   1.632  1.00 20.00     0.013 A 
HETATM    5  C5  UNL     1     -31.574   6.976   1.580  1.00 20.00    -0.007 A 
HETATM    6  C6  UNL     1     -32.374   6.738   2.841  1.00 20.00     0.029 A 
HETATM    7  C7  UNL     1     -33.377   7.766   3.289  1.00 20.00     0.117 C 
HETATM    8 CL8  UNL     1     -34.808   6.918   3.952  1.00 20.00    -0.101 Cl
HETATM    9 CL9  UNL     1     -32.628   8.708   4.629  1.00 20.00    -0.101 Cl
ENDROOT
TORSDOF 0
