REMARK  1 active torsions:
REMARK  status: ('A' for Active; 'I' for Inactive)
REMARK    1  A    between atoms: C1_1  and  C2_2 
ROOT
HETATM    1  C2  UNL     1     -33.308   6.575   2.442  1.00 20.00     0.363 C 
HETATM    2  F4  UNL     1     -32.963   5.301   2.125  1.00 20.00    -0.183 F 
HETATM    3  F5  UNL     1     -34.363   6.898   1.649  1.00 20.00    -0.183 F 
HETATM    4 CL7  UNL     1     -31.963   7.669   2.077  1.00 20.00    -0.044 Cl
ENDROOT
BRANCH   1   5
HETATM    5  C1  UNL     1     -33.748   6.647   3.891  1.00 20.00     0.353 C 
HETATM    6  F3  UNL     1     -34.038   7.947   4.180  1.00 20.00    -0.225 F 
HETATM    7 CL6  UNL     1     -35.198   5.672   4.212  1.00 20.00    -0.082 Cl
ENDBRANCH   1   5
TORSDOF 1
