REMARK  1 active torsions:
REMARK  status: ('A' for Active; 'I' for Inactive)
REMARK    1  A    between atoms: C3_3  and  C9_9 
ROOT
HETATM    1  C1  UNL     1     -32.374   6.628   1.465  1.00 20.00     0.017 A 
HETATM    2  C2  UNL     1     -33.112   5.670   2.219  1.00 20.00     0.028 A 
HETATM    3  C3  UNL     1     -32.473   7.894   1.997  1.00 20.00    -0.012 A 
HETATM    4  C4  UNL     1     -33.748   6.242   3.299  1.00 20.00     0.051 A 
HETATM    5  S10 UNL     1     -33.454   7.926   3.400  1.00 20.00    -0.087 SA
HETATM    6 BR11 UNL     1     -34.827   5.290   4.539  1.00 20.00    -0.043 Br
ENDROOT
BRANCH   3   7
HETATM    7  C9  UNL     1     -31.844   9.178   1.499  1.00 20.00     0.026 C 
HETATM    8  C7  UNL     1     -32.876  10.256   1.151  1.00 20.00     0.010 C 
HETATM    9  C5  UNL     1     -33.163  10.047  -0.327  1.00 20.00     0.001 C 
HETATM   10  C6  UNL     1     -31.824   9.636  -0.923  1.00 20.00     0.001 C 
HETATM   11  C8  UNL     1     -30.998   9.045   0.223  1.00 20.00     0.010 C 
ENDBRANCH   3   7
TORSDOF 1
