REMARK  1 active torsions:
REMARK  status: ('A' for Active; 'I' for Inactive)
REMARK    1  A    between atoms: C2_2  and  C6_6 
ROOT
HETATM    1  C1  UNL     1     -34.882   6.152   4.099  1.00 20.00     0.167 A 
HETATM    2  C2  UNL     1     -33.287   7.411   2.806  1.00 20.00     0.024 A 
HETATM    3  C3  UNL     1     -33.325   6.055   2.558  1.00 20.00     0.116 A 
HETATM    4  N7  UNL     1     -34.238   5.331   3.299  1.00 20.00    -0.245 NA
HETATM    5  S8  UNL     1     -34.439   7.807   4.012  1.00 20.00    -0.084 SA
HETATM    6 BR9  UNL     1     -32.222   5.168   1.292  1.00 20.00    -0.028 Br
ENDROOT
BRANCH   2   7
HETATM    7  C6  UNL     1     -32.370   8.441   2.125  1.00 20.00     0.028 A 
HETATM    8  C4  UNL     1     -33.002   9.633   1.445  1.00 20.00     0.010 A 
HETATM    9  C5  UNL     1     -32.391   8.545   0.618  1.00 20.00     0.010 A 
ENDBRANCH   2   7
TORSDOF 1
