REMARK  0 active torsions:
REMARK  status: ('A' for Active; 'I' for Inactive)
ROOT
HETATM    1  C1  UNL     1     -34.320   6.666   3.957  1.00 20.00     0.136 C 
HETATM    2  C2  UNL     1     -33.517   5.660   3.159  1.00 20.00     0.088 C 
HETATM    3  C3  UNL     1     -33.574   7.847   4.518  1.00 20.00     0.152 C 
HETATM    4  C4  UNL     1     -31.991   7.506   2.292  1.00 20.00     0.083 C 
HETATM    5  C5  UNL     1     -32.857   6.283   1.914  1.00 20.00    -0.033 C 
HETATM    6  C6  UNL     1     -33.930   6.659   0.871  1.00 20.00     0.016 C 
HETATM    7  C7  UNL     1     -31.935   5.223   1.277  1.00 20.00     0.016 C 
HETATM    8  O8  UNL     1     -35.517   6.495   4.185  1.00 20.00    -0.297 OA
HETATM    9  S9  UNL     1     -32.896   8.827   3.163  1.00 20.00    -0.161 SA
ENDROOT
TORSDOF 0
