REMARK  1 active torsions:
REMARK  status: ('A' for Active; 'I' for Inactive)
REMARK    1  A    between atoms: C3_3  and  C5_5 
ROOT
HETATM    1  C1  UNL     1     -32.394   8.351   2.549  1.00 20.00     0.144 A 
HETATM    2  C2  UNL     1     -32.185   7.651   1.379  1.00 20.00     0.071 A 
HETATM    3  C3  UNL     1     -33.464   6.509   3.070  1.00 20.00     0.103 A 
HETATM    4  N7  UNL     1     -33.127   7.698   3.520  1.00 20.00    -0.251 NA
HETATM    5  S8  UNL     1     -32.932   6.111   1.488  1.00 20.00    -0.061 SA
HETATM    6 BR9  UNL     1     -31.224   8.278  -0.125  1.00 20.00    -0.041 Br
ENDROOT
BRANCH   3   7
HETATM    7  C5  UNL     1     -34.235   5.526   3.790  1.00 20.00    -0.035 C 
HETATM    8  C4  UNL     1     -35.480   5.866   4.176  1.00 20.00     0.021 C 
HETATM    9  C6  UNL     1     -33.707   4.154   4.136  1.00 20.00     0.050 C 
ENDBRANCH   3   7
TORSDOF 1
