REMARK  1 active torsions:
REMARK  status: ('A' for Active; 'I' for Inactive)
REMARK    1  A    between atoms: C4_4  and  C5_5 
ROOT
HETATM    1  C1  UNL     1     -33.188   7.422   2.870  1.00 20.00     0.059 C 
HETATM    2  C5  UNL     1     -32.384   7.490   1.653  1.00 20.00     0.132 C 
HETATM    3  N6  UNL     1     -33.813   7.353   3.846  1.00 20.00    -0.197 NA
ENDROOT
BRANCH   2   4
HETATM    4  C4  UNL     1     -33.084   8.515   0.787  1.00 20.00     0.046 C 
HETATM    5  C2  UNL     1     -32.584   8.654  -0.655  1.00 20.00     0.175 C 
HETATM    6  O7  UNL     1     -32.407  10.082  -0.496  1.00 20.00    -0.390 OA
HETATM    7  C3  UNL     1     -32.623   9.969   0.931  1.00 20.00     0.175 C 
ENDBRANCH   2   4
TORSDOF 1
