REMARK  0 active torsions:
REMARK  status: ('A' for Active; 'I' for Inactive)
ROOT
HETATM    1  C1  UNL     1     -33.545   5.933   2.798  1.00 20.00     0.014 C 
HETATM    2  C2  UNL     1     -32.662   5.277   1.782  1.00 20.00     0.085 C 
HETATM    3  C3  UNL     1     -34.319   7.633   4.124  1.00 20.00     0.034 C 
HETATM    4  C4  UNL     1     -34.998   6.304   4.414  1.00 20.00     0.149 C 
HETATM    5  C5  UNL     1     -31.413   6.132   1.554  1.00 20.00     0.277 C 
HETATM    6  C6  UNL     1     -32.435   8.135   2.466  1.00 20.00     0.282 C 
HETATM    7  C7  UNL     1     -33.753   7.415   2.736  1.00 20.00     0.063 C 
HETATM    8  C8  UNL     1     -32.300   7.833   0.050  1.00 20.00     0.309 C 
HETATM    9  N9  UNL     1     -34.207   5.277   3.702  1.00 20.00    -0.298 NA
HETATM   10  N10 UNL     1     -31.674   7.566   1.342  1.00 20.00     0.085 N 
ENDROOT
TORSDOF 0
