REMARK  0 active torsions:
REMARK  status: ('A' for Active; 'I' for Inactive)
ROOT
HETATM    1  C1  UNL     1     -32.737   7.146   2.317  1.00 20.00    -0.037 C 
HETATM    2  C2  UNL     1     -32.542   5.666   2.187  1.00 20.00     0.040 C 
HETATM    3  C3  UNL     1     -34.027   5.174   3.908  1.00 20.00     0.243 C 
HETATM    4  C4  UNL     1     -32.269   8.013   1.410  1.00 20.00    -0.022 C 
HETATM    5  C5  UNL     1     -33.529   7.571   3.515  1.00 20.00     0.049 C 
HETATM    6  C6  UNL     1     -34.626   6.558   3.781  1.00 20.00     0.110 C 
HETATM    7  C7  UNL     1     -31.603   5.135   1.125  1.00 20.00     0.071 C 
HETATM    8  C8  UNL     1     -31.513   7.613   0.189  1.00 20.00     0.036 C 
HETATM    9  N9  UNL     1     -33.136   4.784   2.932  1.00 20.00    -0.219 NA
HETATM   10  O10 UNL     1     -34.394   4.424   4.812  1.00 20.00    -0.271 OA
ENDROOT
TORSDOF 0
