REMARK  1 active torsions:
REMARK  status: ('A' for Active; 'I' for Inactive)
REMARK    1  A    between atoms: C9_9  and  S11_11 
ROOT
HETATM    1  C1  UNL     1     -33.911   9.281   3.172  1.00 20.00     0.015 A 
HETATM    2  C2  UNL     1     -34.790   7.421   4.502  1.00 20.00     0.016 A 
HETATM    3  C3  UNL     1     -33.112   9.738   2.128  1.00 20.00     0.025 A 
HETATM    4  C4  UNL     1     -34.848   6.058   4.759  1.00 20.00     0.039 A 
HETATM    5  C5  UNL     1     -32.473   7.460   1.650  1.00 20.00     0.056 A 
HETATM    6  C6  UNL     1     -33.993   7.907   3.457  1.00 20.00    -0.007 A 
HETATM    7  C7  UNL     1     -33.264   6.976   2.688  1.00 20.00     0.070 A 
HETATM    8  C8  UNL     1     -32.392   8.825   1.366  1.00 20.00     0.036 A 
HETATM    9  C9  UNL     1     -34.100   5.225   3.952  1.00 20.00     0.091 A 
HETATM   10  N10 UNL     1     -33.319   5.653   2.935  1.00 20.00    -0.242 NA
HETATM   11 CL12 UNL     1     -31.401   9.378   0.072  1.00 20.00    -0.084 Cl
ENDROOT
BRANCH   9  12
HETATM   12  S11 UNL     1     -34.138   3.464   4.238  1.00 20.00    -0.123 SA
HETATM   13  H18 UNL     1     -34.985   3.479   5.278  1.00 20.00     0.108 HD
ENDBRANCH   9  12
TORSDOF 1
