REMARK  1 active torsions:
REMARK  status: ('A' for Active; 'I' for Inactive)
REMARK    1  A    between atoms: C4_4  and  C8_8 
ROOT
HETATM    1  C5  UNL     1     -32.885   5.333   1.957  1.00 20.00     0.033 C 
HETATM    2  C6  UNL     1     -31.860   6.443   1.773  1.00 20.00     0.042 C 
HETATM    3  C7  UNL     1     -33.722   5.811   3.127  1.00 20.00     0.273 C 
HETATM    4  C8  UNL     1     -32.498   7.690   2.412  1.00 20.00     0.256 C 
HETATM    5  C9  UNL     1     -34.336   7.983   4.004  1.00 20.00     0.310 C 
HETATM    6  N10 UNL     1     -33.834   7.243   2.853  1.00 20.00     0.093 N 
ENDROOT
BRANCH   4   7
HETATM    7  C4  UNL     1     -32.562   8.866   1.460  1.00 20.00    -0.018 A 
HETATM    8  C1  UNL     1     -32.112   8.821   0.109  1.00 20.00     0.017 A 
HETATM    9  C2  UNL     1     -32.284  10.026  -0.535  1.00 20.00     0.050 A 
HETATM   10  S11 UNL     1     -32.986  11.207   0.488  1.00 20.00    -0.113 SA
HETATM   11  C3  UNL     1     -33.062  10.105   1.798  1.00 20.00     0.058 A 
ENDBRANCH   4   7
TORSDOF 1
