REMARK  1 active torsions:
REMARK  status: ('A' for Active; 'I' for Inactive)
REMARK    1  A    between atoms: C3_3  and  C4_4 
ROOT
HETATM    1  C1  UNL     1     -32.982   5.181   2.371  1.00 20.00     0.067 A 
HETATM    2  C2  UNL     1     -33.765   6.191   2.867  1.00 20.00     0.080 A 
HETATM    3  C3  UNL     1     -32.583   6.911   1.257  1.00 20.00     0.208 A 
HETATM    4  C5  UNL     1     -33.011   3.803   2.903  1.00 20.00     0.062 C 
HETATM    5  C6  UNL     1     -34.713   6.140   3.992  1.00 20.00     0.067 C 
HETATM    6  C7  UNL     1     -33.708   3.781   4.285  1.00 20.00     0.006 C 
HETATM    7  C8  UNL     1     -34.986   4.656   4.331  1.00 20.00     0.007 C 
HETATM    8  N9  UNL     1     -32.226   5.643   1.332  1.00 20.00    -0.224 NA
HETATM    9  O11 UNL     1     -33.521   7.324   2.164  1.00 20.00    -0.292 OA
ENDROOT
BRANCH   3  10
HETATM   10  C4  UNL     1     -32.071   7.849   0.319  1.00 20.00     0.316 C 
HETATM   11  O10 UNL     1     -32.421   9.050   0.259  1.00 20.00    -0.298 OA
ENDBRANCH   3  10
TORSDOF 1
