REMARK  1 active torsions:
REMARK  status: ('A' for Active; 'I' for Inactive)
REMARK    1  A    between atoms: C2_2  and  C6_6 
ROOT
HETATM    1  C1  UNL     1     -34.034   6.414   3.800  1.00 20.00     0.119 A 
HETATM    2  C2  UNL     1     -32.738   7.154   2.158  1.00 20.00     0.043 A 
HETATM    3  C3  UNL     1     -33.386   7.683   3.380  1.00 20.00     0.105 A 
HETATM    4  N7  UNL     1     -33.800   5.424   3.001  1.00 20.00    -0.167 NA
HETATM    5  N8  UNL     1     -32.963   5.898   1.941  1.00 20.00    -0.159 NA
ENDROOT
BRANCH   2   6
HETATM    6  C6  UNL     1     -31.908   7.985   1.276  1.00 20.00     0.035 A 
HETATM    7  C4  UNL     1     -32.248   8.073  -0.186  1.00 20.00     0.011 A 
HETATM    8  C5  UNL     1     -32.482   9.253   0.707  1.00 20.00     0.011 A 
ENDBRANCH   2   6
TORSDOF 1
