REMARK  0 active torsions:
REMARK  status: ('A' for Active; 'I' for Inactive)
ROOT
HETATM    1  C1  UNL     1     -31.494   6.272   1.339  1.00 20.00    -0.002 C 
HETATM    2  C2  UNL     1     -31.714   7.557   1.967  1.00 20.00     0.009 C 
HETATM    3  C3  UNL     1     -32.552   5.468   1.547  1.00 20.00    -0.013 C 
HETATM    4  C4  UNL     1     -34.196   5.689   3.510  1.00 20.00     0.006 C 
HETATM    5  C5  UNL     1     -34.427   6.512   4.552  1.00 20.00     0.113 C 
HETATM    6  C6  UNL     1     -33.416   8.347   3.641  1.00 20.00     0.124 C 
HETATM    7  C7  UNL     1     -32.926   7.525   2.530  1.00 20.00    -0.029 C 
HETATM    8  C8  UNL     1     -33.639   6.243   2.236  1.00 20.00     0.066 C 
HETATM    9  N9  UNL     1     -34.151   7.868   4.601  1.00 20.00    -0.273 NA
ENDROOT
TORSDOF 0
