REMARK  1 active torsions:
REMARK  status: ('A' for Active; 'I' for Inactive)
REMARK    1  A    between atoms: C4_4  and  C5_5 
ROOT
HETATM    1  C5  UNL     1     -33.565   6.342   2.715  1.00 20.00     0.039 C 
HETATM    2  C6  UNL     1     -34.623   6.973   3.608  1.00 20.00     0.060 C 
HETATM    3  C7  UNL     1     -35.499   5.948   4.301  1.00 20.00     0.008 C 
HETATM    4  C8  UNL     1     -34.628   4.821   4.816  1.00 20.00     0.022 C 
HETATM    5  C9  UNL     1     -33.935   4.156   3.641  1.00 20.00     0.149 C 
HETATM    6  N10 UNL     1     -33.248   5.094   2.757  1.00 20.00    -0.293 NA
ENDROOT
BRANCH   1   7
HETATM    7  C4  UNL     1     -32.831   7.234   1.760  1.00 20.00    -0.005 A 
HETATM    8  C1  UNL     1     -33.040   8.636   1.613  1.00 20.00     0.021 A 
HETATM    9  C2  UNL     1     -32.216   9.183   0.653  1.00 20.00     0.050 A 
HETATM   10  S11 UNL     1     -31.198   8.009  -0.066  1.00 20.00    -0.113 SA
HETATM   11  C3  UNL     1     -31.857   6.763   0.907  1.00 20.00     0.063 A 
ENDBRANCH   1   7
TORSDOF 1
