REMARK  3 active torsions:
REMARK  status: ('A' for Active; 'I' for Inactive)
REMARK    1  A    between atoms: C5_5  and  C8_8 
REMARK    2  A    between atoms: C7_7  and  N9_9 
REMARK    3  A    between atoms: C8_8  and  N9_9 
ROOT
HETATM    1  C1  UNL     1     -32.700   9.623  -0.369  1.00 20.00     0.013 C 
HETATM    2  C2  UNL     1     -32.472   9.089   0.681  1.00 20.00    -0.087 C 
HETATM    3  C7  UNL     1     -32.191   8.441   1.965  1.00 20.00     0.362 C 
ENDROOT
BRANCH   3   4
HETATM    4  N9  UNL     1     -32.516   7.016   1.907  1.00 20.00     0.094 N 
HETATM    5  H22 UNL     1     -32.013   6.539   2.664  1.00 20.00     0.317 HD
BRANCH   4   6
HETATM    6  C8  UNL     1     -33.930   6.788   2.028  1.00 20.00     0.275 C 
BRANCH   6   7
HETATM    7  C5  UNL     1     -34.364   6.844   3.452  1.00 20.00     0.018 A 
HETATM    8  C3  UNL     1     -35.667   6.218   3.875  1.00 20.00     0.011 A 
HETATM    9  C4  UNL     1     -34.365   5.628   4.348  1.00 20.00    -0.013 A 
HETATM   10  C6  UNL     1     -33.932   4.283   3.873  1.00 20.00     0.010 C 
ENDBRANCH   6   7
ENDBRANCH   4   6
ENDBRANCH   3   4
TORSDOF 3
