REMARK  0 active torsions:
REMARK  status: ('A' for Active; 'I' for Inactive)
ROOT
HETATM    1  C1  UNL     1     -32.580   9.422  -0.090  1.00 20.00     0.012 C 
HETATM    2  C2  UNL     1     -32.162   8.729   0.797  1.00 20.00    -0.113 C 
HETATM    3  C3  UNL     1     -31.978   6.403   1.636  1.00 20.00     0.047 C 
HETATM    4  C4  UNL     1     -32.214   8.320   3.243  1.00 20.00     0.047 C 
HETATM    5  C5  UNL     1     -33.456   6.078   1.876  1.00 20.00     0.273 C 
HETATM    6  C6  UNL     1     -33.684   7.927   3.425  1.00 20.00     0.273 C 
HETATM    7  C7  UNL     1     -31.650   7.878   1.888  1.00 20.00     0.067 C 
HETATM    8  C8  UNL     1     -35.273   6.117   3.456  1.00 20.00     0.309 C 
HETATM    9  N9  UNL     1     -33.877   6.485   3.223  1.00 20.00     0.084 N 
ENDROOT
TORSDOF 0
