REMARK  0 active torsions:
REMARK  status: ('A' for Active; 'I' for Inactive)
ROOT
HETATM    1  C1  UNL     1     -32.568   5.518   1.627  1.00 20.00    -0.057 C 
HETATM    2  C2  UNL     1     -32.449   7.986   1.822  1.00 20.00    -0.057 C 
HETATM    3  C3  UNL     1     -32.606   4.555   0.695  1.00 20.00     0.016 C 
HETATM    4  C4  UNL     1     -32.387   9.083   1.052  1.00 20.00     0.016 C 
HETATM    5  C5  UNL     1     -31.676   6.729   1.503  1.00 20.00     0.070 C 
HETATM    6  C6  UNL     1     -33.431   5.484   2.869  1.00 20.00     0.306 C 
HETATM    7  C7  UNL     1     -33.314   7.907   3.060  1.00 20.00     0.306 C 
HETATM    8  C8  UNL     1     -35.037   6.676   4.222  1.00 20.00     0.310 C 
HETATM    9  N9  UNL     1     -34.205   6.731   3.020  1.00 20.00     0.091 N 
ENDROOT
TORSDOF 0
