REMARK  0 active torsions:
REMARK  status: ('A' for Active; 'I' for Inactive)
ROOT
HETATM    1  C1  UNL     1     -33.576   8.011   2.651  1.00 20.00     0.050 A 
HETATM    2  C2  UNL     1     -32.039   6.541   1.460  1.00 20.00     0.062 A 
HETATM    3  C3  UNL     1     -33.492   5.657   3.114  1.00 20.00     0.034 A 
HETATM    4  C4  UNL     1     -34.033   6.912   3.362  1.00 20.00    -0.040 A 
HETATM    5  C5  UNL     1     -32.573   7.819   1.696  1.00 20.00     0.118 A 
HETATM    6  C6  UNL     1     -32.500   5.437   2.176  1.00 20.00     0.028 A 
HETATM    7  C7  UNL     1     -34.147   4.699   3.989  1.00 20.00     0.161 A 
HETATM    8  C8  UNL     1     -35.089   6.890   4.420  1.00 20.00     0.047 A 
HETATM    9  C9  UNL     1     -35.167   5.412   4.842  1.00 20.00     0.088 A 
HETATM   10  O10 UNL     1     -33.917   3.504   4.038  1.00 20.00    -0.292 OA
HETATM   11  F11 UNL     1     -32.116   8.866   0.995  1.00 20.00    -0.206 F 
HETATM   12 BR12 UNL     1     -31.742   3.746   1.811  1.00 20.00    -0.050 Br
ENDROOT
TORSDOF 0
