REMARK  1 active torsions:
REMARK  status: ('A' for Active; 'I' for Inactive)
REMARK    1  A    between atoms: C3_3  and  C5_5 
ROOT
HETATM    1  C1  UNL     1     -32.858   5.435   1.942  1.00 20.00     0.022 A 
HETATM    2  C2  UNL     1     -32.376   6.474   1.094  1.00 20.00     0.028 A 
HETATM    3  C3  UNL     1     -33.434   5.930   3.091  1.00 20.00     0.048 A 
HETATM    4  C4  UNL     1     -32.603   7.723   1.627  1.00 20.00     0.052 A 
HETATM    5  S8  UNL     1     -33.393   7.641   3.144  1.00 20.00    -0.082 SA
HETATM    6 BR9  UNL     1     -32.105   9.355   0.792  1.00 20.00    -0.043 Br
ENDROOT
BRANCH   3   7
HETATM    7  C5  UNL     1     -34.045   5.181   4.211  1.00 20.00     0.393 C 
HETATM    8  F6  UNL     1     -34.008   3.837   3.987  1.00 20.00    -0.208 F 
HETATM    9  F7  UNL     1     -35.362   5.500   4.360  1.00 20.00    -0.208 F 
ENDBRANCH   3   7
TORSDOF 1
