REMARK  0 active torsions:
REMARK  status: ('A' for Active; 'I' for Inactive)
ROOT
HETATM    1  C1  UNL     1     -32.679   7.676   2.393  1.00 20.00     0.075 C 
HETATM    2  C2  UNL     1     -33.625   7.852   3.579  1.00 20.00     0.273 C 
HETATM    3  C3  UNL     1     -33.603   5.572   3.058  1.00 20.00     0.312 C 
HETATM    4  C4  UNL     1     -32.975   6.277   1.871  1.00 20.00     0.127 C 
HETATM    5  C5  UNL     1     -31.772   5.561   1.292  1.00 20.00     0.053 C 
HETATM    6  N6  UNL     1     -34.429   6.631   3.637  1.00 20.00     0.086 N 
HETATM    7  F7  UNL     1     -33.918   6.377   0.888  1.00 20.00    -0.241 F 
HETATM    8  H17 UNL     1     -34.689   6.411   4.596  1.00 20.00     0.316 HD
ENDROOT
TORSDOF 0
