REMARK  0 active torsions:
REMARK  status: ('A' for Active; 'I' for Inactive)
ROOT
HETATM    1  C1  UNL     1     -32.752   5.277   1.670  1.00 20.00     0.011 C 
HETATM    2  C2  UNL     1     -33.418   5.642   2.996  1.00 20.00     0.017 C 
HETATM    3  C3  UNL     1     -31.438   6.012   1.440  1.00 20.00     0.074 C 
HETATM    4  C4  UNL     1     -32.507   8.025   2.993  1.00 20.00     0.089 C 
HETATM    5  C5  UNL     1     -33.736   7.131   3.094  1.00 20.00     0.067 C 
HETATM    6  S6  UNL     1     -31.669   7.813   1.395  1.00 20.00    -0.168 SA
HETATM    7 BR7  UNL     1     -34.599   7.467   4.827  1.00 20.00    -0.090 Br
ENDROOT
TORSDOF 0
