REMARK  0 active torsions:
REMARK  status: ('A' for Active; 'I' for Inactive)
ROOT
HETATM    1  C1  UNL     1     -34.859   5.589   3.612  1.00 20.00     0.034 A 
HETATM    2  C2  UNL     1     -32.428   7.911   2.569  1.00 20.00     0.027 A 
HETATM    3  C3  UNL     1     -35.175   6.854   4.292  1.00 20.00     0.118 A 
HETATM    4  C4  UNL     1     -32.932   5.210   2.013  1.00 20.00     0.124 A 
HETATM    5  C5  UNL     1     -33.786   5.970   2.927  1.00 20.00     0.011 A 
HETATM    6  C6  UNL     1     -33.475   7.342   3.168  1.00 20.00     0.066 A 
HETATM    7  C7  UNL     1     -31.550   7.124   1.627  1.00 20.00     0.178 A 
HETATM    8  N8  UNL     1     -34.389   7.861   4.044  1.00 20.00    -0.261 NA
HETATM    9  N9  UNL     1     -31.909   5.702   1.405  1.00 20.00    -0.297 NA
ENDROOT
TORSDOF 0
