REMARK  3 active torsions:
REMARK  status: ('A' for Active; 'I' for Inactive)
REMARK    1  A    between atoms: C5_5  and  C8_8 
REMARK    2  A    between atoms: C7_7  and  N9_9 
REMARK    3  A    between atoms: C8_8  and  N9_9 
ROOT
HETATM    1  C1  UNL     1     -32.775  10.390   0.411  1.00 20.00     0.013 C 
HETATM    2  C2  UNL     1     -32.539   9.297   0.847  1.00 20.00    -0.087 C 
HETATM    3  C7  UNL     1     -32.249   7.962   1.375  1.00 20.00     0.362 C 
ENDROOT
BRANCH   3   4
HETATM    4  N9  UNL     1     -32.410   7.935   2.830  1.00 20.00     0.094 N 
HETATM    5  H22 UNL     1     -31.894   7.127   3.196  1.00 20.00     0.317 HD
BRANCH   4   6
HETATM    6  C8  UNL     1     -33.794   7.853   3.209  1.00 20.00     0.275 C 
BRANCH   6   7
HETATM    7  C5  UNL     1     -34.298   6.455   3.111  1.00 20.00     0.018 A 
HETATM    8  C3  UNL     1     -35.532   6.041   3.868  1.00 20.00     0.011 A 
HETATM    9  C4  UNL     1     -34.181   5.525   4.291  1.00 20.00    -0.013 A 
HETATM   10  C6  UNL     1     -33.828   4.093   4.083  1.00 20.00     0.010 C 
ENDBRANCH   6   7
ENDBRANCH   4   6
ENDBRANCH   3   4
TORSDOF 3
