REMARK  2 active torsions:
REMARK  status: ('A' for Active; 'I' for Inactive)
REMARK    1  A    between atoms: C1_1  and  C8_8 
REMARK    2  A    between atoms: C8_8  and  O9_9 
ROOT
HETATM    1  C1  UNL     1     -33.740   7.675   2.251  1.00 20.00     0.026 A 
HETATM    2  C2  UNL     1     -32.382   8.141   1.745  1.00 20.00    -0.034 A 
HETATM    3  C3  UNL     1     -32.807   6.663   1.601  1.00 20.00    -0.034 A 
HETATM    4  C4  UNL     1     -32.374   9.031   0.520  1.00 20.00     0.016 C 
HETATM    5  C5  UNL     1     -31.287   8.521   2.717  1.00 20.00     0.016 C 
HETATM    6  C6  UNL     1     -32.129   5.597   2.432  1.00 20.00     0.016 C 
HETATM    7  C7  UNL     1     -33.205   6.138   0.237  1.00 20.00     0.016 C 
ENDROOT
BRANCH   1   8
HETATM    8  C8  UNL     1     -34.107   7.640   3.695  1.00 20.00     0.170 C 
BRANCH   8   9
HETATM    9  O9  UNL     1     -35.217   6.765   3.893  1.00 20.00    -0.400 OA
HETATM   10  H25 UNL     1     -35.412   6.780   4.843  1.00 20.00     0.209 HD
ENDBRANCH   8   9
ENDBRANCH   1   8
TORSDOF 2
