REMARK  0 active torsions:
REMARK  status: ('A' for Active; 'I' for Inactive)
ROOT
HETATM    1  C1  UNL     1     -33.469   5.444   3.201  1.00 20.00     0.136 C 
HETATM    2  C2  UNL     1     -32.246   5.608   2.329  1.00 20.00     0.084 C 
HETATM    3  C3  UNL     1     -33.636   7.618   5.432  1.00 20.00     0.002 C 
HETATM    4  C4  UNL     1     -32.433   7.793   4.482  1.00 20.00     0.006 C 
HETATM    5  C5  UNL     1     -33.735   7.097   0.947  1.00 20.00     0.006 C 
HETATM    6  C6  UNL     1     -34.831   7.126   4.586  1.00 20.00     0.018 C 
HETATM    7  C7  UNL     1     -34.935   6.906   1.921  1.00 20.00     0.018 C 
HETATM    8  C8  UNL     1     -32.485   7.064   1.881  1.00 20.00    -0.002 C 
HETATM    9  C9  UNL     1     -33.065   7.771   3.102  1.00 20.00     0.006 C 
HETATM   10  C10 UNL     1     -34.217   6.777   3.259  1.00 20.00     0.024 C 
HETATM   11  O11 UNL     1     -33.810   4.406   3.746  1.00 20.00    -0.297 OA
ENDROOT
TORSDOF 0
