REMARK  0 active torsions:
REMARK  status: ('A' for Active; 'I' for Inactive)
ROOT
HETATM    1  C1  UNL     1     -32.868   6.563   1.847  1.00 20.00     0.136 C 
HETATM    2  C2  UNL     1     -33.603   6.814   3.161  1.00 20.00     0.084 C 
HETATM    3  C3  UNL     1     -32.354   9.794  -0.035  1.00 20.00     0.002 C 
HETATM    4  C4  UNL     1     -32.969  10.144   1.336  1.00 20.00     0.006 C 
HETATM    5  C5  UNL     1     -31.821   8.519   3.685  1.00 20.00     0.006 C 
HETATM    6  C6  UNL     1     -32.049   8.278  -0.029  1.00 20.00     0.018 C 
HETATM    7  C7  UNL     1     -31.091   8.152   2.382  1.00 20.00     0.018 C 
HETATM    8  C8  UNL     1     -33.306   8.338   3.324  1.00 20.00    -0.002 C 
HETATM    9  C9  UNL     1     -33.388   8.790   1.871  1.00 20.00     0.006 C 
HETATM   10  C10 UNL     1     -32.250   7.870   1.404  1.00 20.00     0.024 C 
HETATM   11  O11 UNL     1     -32.774   5.490   1.275  1.00 20.00    -0.297 OA
ENDROOT
TORSDOF 0
