REMARK  1 active torsions:
REMARK  status: ('A' for Active; 'I' for Inactive)
REMARK    1  A    between atoms: C3_3  and  C5_5 
ROOT
HETATM    1  C1  UNL     1     -32.553   8.387   1.101  1.00 20.00     0.221 A 
HETATM    2  C4  UNL     1     -33.721   7.399   0.938  1.00 20.00     0.138 A 
HETATM    3  C5  UNL     1     -32.997   6.547   2.019  1.00 20.00     0.060 A 
HETATM    4  C7  UNL     1     -32.386   5.240   1.544  1.00 20.00     0.044 C 
HETATM    5  N8  UNL     1     -31.992   7.608   2.064  1.00 20.00    -0.348 N 
HETATM    6  O9  UNL     1     -32.220   9.439   0.606  1.00 20.00    -0.273 OA
HETATM    7  H20 UNL     1     -31.136   7.734   2.588  1.00 20.00     0.163 HD
ENDROOT
BRANCH   3   8
HETATM    8  C3  UNL     1     -33.715   6.427   3.306  1.00 20.00    -0.065 C 
HETATM    9  C2  UNL     1     -34.095   5.239   3.799  1.00 20.00     0.016 C 
HETATM   10  C6  UNL     1     -33.994   7.711   4.030  1.00 20.00     0.045 C 
ENDBRANCH   3   8
TORSDOF 1
