REMARK  0 active torsions:
REMARK  status: ('A' for Active; 'I' for Inactive)
ROOT
HETATM    1  C1  UNL     1     -33.247   6.062   1.584  1.00 20.00     0.272 A 
HETATM    2  C2  UNL     1     -33.910   7.444   3.243  1.00 20.00     0.272 A 
HETATM    3  C3  UNL     1     -33.360   7.387   0.944  1.00 20.00     0.109 A 
HETATM    4  C4  UNL     1     -33.803   8.312   2.054  1.00 20.00     0.109 A 
HETATM    5  C5  UNL     1     -32.497   8.566   1.335  1.00 20.00    -0.021 A 
HETATM    6  C6  UNL     1     -31.190   8.335   2.050  1.00 20.00     0.016 C 
HETATM    7  C7  UNL     1     -32.455   9.733   0.379  1.00 20.00     0.016 C 
HETATM    8  O8  UNL     1     -32.901   5.048   1.000  1.00 20.00    -0.264 OA
HETATM    9  O9  UNL     1     -34.239   7.839   4.350  1.00 20.00    -0.264 OA
HETATM   10  O10 UNL     1     -33.597   6.152   2.907  1.00 20.00    -0.244 OA
ENDROOT
TORSDOF 0
