REMARK  0 active torsions:
REMARK  status: ('A' for Active; 'I' for Inactive)
ROOT
HETATM    1  C1  UNL     1     -35.027   6.819   4.206  1.00 20.00    -0.019 C 
HETATM    2  C2  UNL     1     -35.407   5.543   4.301  1.00 20.00     0.080 C 
HETATM    3  C3  UNL     1     -33.624   7.241   3.920  1.00 20.00     0.037 C 
HETATM    4 CL4  UNL     1     -34.325   4.229   4.105  1.00 20.00    -0.097 Cl
ENDROOT
TORSDOF 0
