REMARK  1 active torsions:
REMARK  status: ('A' for Active; 'I' for Inactive)
REMARK    1  A    between atoms: C7_7  and  N9_9 
ROOT
HETATM    1  C1  UNL     1     -35.329   7.038   4.048  1.00 20.00     0.031 C 
HETATM    2  C4  UNL     1     -34.956   5.672   4.615  1.00 20.00     0.019 C 
HETATM    3  C5  UNL     1     -34.086   7.823   3.628  1.00 20.00     0.273 C 
HETATM    4  C6  UNL     1     -32.843   5.776   3.236  1.00 20.00     0.288 C 
HETATM    5  C8  UNL     1     -34.053   4.934   3.636  1.00 20.00     0.086 C 
HETATM    6  N9  UNL     1     -33.270   7.065   2.668  1.00 20.00     0.094 N 
HETATM    7 BR10 UNL     1     -33.440   3.267   4.454  1.00 20.00    -0.089 Br
ENDROOT
BRANCH   6   8
HETATM    8  C7  UNL     1     -32.109   7.862   2.195  1.00 20.00     0.223 A 
HETATM    9  C2  UNL     1     -31.406   7.496   0.916  1.00 20.00     0.038 A 
HETATM   10  C3  UNL     1     -32.232   8.747   0.986  1.00 20.00     0.038 A 
ENDBRANCH   6   8
TORSDOF 1
