REMARK  1 active torsions:
REMARK  status: ('A' for Active; 'I' for Inactive)
REMARK    1  A    between atoms: C5_5  and  O7_7 
ROOT
HETATM    1  C1  UNL     1     -33.853   3.695   4.415  1.00 20.00     0.015 C 
HETATM    2  C2  UNL     1     -33.871   4.783   3.908  1.00 20.00    -0.075 C 
HETATM    3  C3  UNL     1     -35.199   6.881   3.487  1.00 20.00     0.221 A 
HETATM    4  C4  UNL     1     -33.265   7.216   4.134  1.00 20.00     0.221 A 
HETATM    5  C5  UNL     1     -33.894   6.092   3.297  1.00 20.00     0.162 A 
HETATM    6  O6  UNL     1     -34.516   7.936   4.202  1.00 20.00    -0.383 OA
ENDROOT
BRANCH   5   7
HETATM    7  O7  UNL     1     -33.421   5.977   1.941  1.00 20.00    -0.373 OA
HETATM    8  H13 UNL     1     -32.522   5.630   2.007  1.00 20.00     0.212 HD
ENDBRANCH   5   7
TORSDOF 1
