REMARK  2 active torsions:
REMARK  status: ('A' for Active; 'I' for Inactive)
REMARK    1  A    between atoms: C3_3  and  C4_4 
REMARK    2  A    between atoms: C3_3  and  O6_6 
ROOT
HETATM    1  C1  UNL     1     -33.090   7.003   2.276  1.00 20.00     0.081 C 
HETATM    2  C4  UNL     1     -34.028   6.115   2.972  1.00 20.00     0.212 C 
HETATM    3  N5  UNL     1     -32.348   7.702   1.722  1.00 20.00    -0.196 NA
HETATM    4 CL7  UNL     1     -34.930   7.085   4.168  1.00 20.00    -0.107 Cl
ENDROOT
BRANCH   2   5
HETATM    5  C3  UNL     1     -33.321   4.943   3.646  1.00 20.00     0.202 C 
BRANCH   5   6
HETATM    6  O6  UNL     1     -34.250   4.103   4.320  1.00 20.00    -0.394 OA
HETATM    7  C2  UNL     1     -33.597   3.030   4.983  1.00 20.00     0.201 C 
ENDBRANCH   5   6
ENDBRANCH   2   5
TORSDOF 2
