REMARK  1 active torsions:
REMARK  status: ('A' for Active; 'I' for Inactive)
REMARK    1  A    between atoms: C6_6  and  C8_8 
ROOT
HETATM    1  C1  UNL     1     -32.066   6.096   1.553  1.00 20.00     0.069 C 
HETATM    2  C2  UNL     1     -31.253   9.055   1.564  1.00 20.00     0.002 C 
HETATM    3  C3  UNL     1     -32.419   8.985   0.578  1.00 20.00     0.002 C 
HETATM    4  C4  UNL     1     -31.666   8.217   2.774  1.00 20.00     0.024 C 
HETATM    5  C5  UNL     1     -33.482   8.108   1.238  1.00 20.00     0.024 C 
HETATM    6  C6  UNL     1     -32.714   7.235   2.238  1.00 20.00     0.049 C 
HETATM    7  N9  UNL     1     -31.558   5.202   1.015  1.00 20.00    -0.196 NA
ENDROOT
BRANCH   6   8
HETATM    8  C8  UNL     1     -33.621   6.706   3.349  1.00 20.00     0.020 C 
HETATM    9  C7  UNL     1     -34.305   7.815   4.078  1.00 20.00     0.007 C 
ENDBRANCH   6   8
TORSDOF 1
