REMARK  3 active torsions:
REMARK  status: ('A' for Active; 'I' for Inactive)
REMARK    1  A    between atoms: C3_3  and  C8_8 
REMARK    2  A    between atoms: C3_3  and  O10_10 
REMARK    3  A    between atoms: C6_6  and  C8_8 
ROOT
HETATM    1  C1  UNL     1     -31.837   8.230   2.795  1.00 20.00    -0.026 C 
HETATM    2  C2  UNL     1     -32.876   7.635   3.388  1.00 20.00    -0.025 C 
HETATM    3  C4  UNL     1     -32.520   6.489   1.352  1.00 20.00     0.017 C 
HETATM    4  C5  UNL     1     -31.636   7.746   1.392  1.00 20.00     0.004 C 
HETATM    5  C6  UNL     1     -33.554   6.659   2.477  1.00 20.00     0.018 C 
HETATM    6  C7  UNL     1     -32.056   8.793   0.368  1.00 20.00     0.014 C 
ENDROOT
BRANCH   5   7
HETATM    7  C8  UNL     1     -33.892   5.340   3.155  1.00 20.00     0.118 C 
BRANCH   7   8
HETATM    8  C3  UNL     1     -35.142   5.441   3.989  1.00 20.00     0.140 C 
HETATM    9  O9  UNL     1     -35.841   6.433   4.127  1.00 20.00    -0.650 OA
BRANCH   8  10
HETATM   10  O10 UNL     1     -35.398   4.248   4.586  1.00 20.00    -0.776 OA
HETATM   11  H22 UNL     1     -36.209   4.282   5.137  1.00 20.00     0.167 HD
ENDBRANCH   8  10
ENDBRANCH   7   8
ENDBRANCH   5   7
TORSDOF 3
