REMARK  2 active torsions:
REMARK  status: ('A' for Active; 'I' for Inactive)
REMARK    1  A    between atoms: C1_1  and  C7_7 
REMARK    2  A    between atoms: C2_2  and  C3_3 
ROOT
HETATM    1  C1  UNL     1     -33.658   6.268   2.586  1.00 20.00    -0.013 C 
HETATM    2  C3  UNL     1     -32.648   6.616   1.769  1.00 20.00    -0.028 C 
HETATM    3  C4  UNL     1     -31.862   5.730   0.856  1.00 20.00     0.051 C 
ENDROOT
BRANCH   1   4
HETATM    4  C7  UNL     1     -34.441   7.173   3.509  1.00 20.00     0.000 C 
HETATM    5  C5  UNL     1     -35.514   6.369   4.244  1.00 20.00     0.013 C 
HETATM    6  C6  UNL     1     -33.497   7.844   4.508  1.00 20.00     0.013 C 
ENDBRANCH   1   4
BRANCH   2   7
HETATM    7  C2  UNL     1     -32.269   8.057   1.787  1.00 20.00     0.265 C 
HETATM    8  O8  UNL     1     -31.150   8.448   2.097  1.00 20.00    -0.302 OA
ENDBRANCH   2   7
TORSDOF 2
