REMARK  0 active torsions:
REMARK  status: ('A' for Active; 'I' for Inactive)
ROOT
HETATM    1  C1  UNL     1     -34.791   5.223   4.069  1.00 20.00     0.095 C 
HETATM    2  C2  UNL     1     -32.758   8.378   3.478  1.00 20.00    -0.026 C 
HETATM    3  C3  UNL     1     -32.364   8.164   2.216  1.00 20.00    -0.001 C 
HETATM    4  C4  UNL     1     -33.614   7.387   4.212  1.00 20.00     0.077 C 
HETATM    5  C5  UNL     1     -32.722   6.909   1.476  1.00 20.00     0.298 C 
HETATM    6  C6  UNL     1     -34.243   6.335   3.276  1.00 20.00     0.329 C 
HETATM    7  N7  UNL     1     -35.224   4.347   4.695  1.00 20.00    -0.195 NA
HETATM    8  N8  UNL     1     -33.240   5.833   2.329  1.00 20.00     0.105 N 
HETATM    9  H16 UNL     1     -33.652   5.112   1.736  1.00 20.00     0.318 HD
ENDROOT
TORSDOF 0
