REMARK  5 active torsions:
REMARK  status: ('A' for Active; 'I' for Inactive)
REMARK    1  A    between atoms: C1_1  and  C3_3 
REMARK    2  A    between atoms: C3_3  and  C7_7 
REMARK    3  A    between atoms: C4_4  and  C5_5 
REMARK    4  A    between atoms: C4_4  and  C6_6 
REMARK    5  A    between atoms: C5_5  and  C7_7 
ROOT
HETATM    1  C2  UNL     1     -33.900   7.921   4.521  1.00 20.00     0.010 C 
HETATM    2  C7  UNL     1     -33.466   7.262   3.207  1.00 20.00    -0.012 C 
ENDROOT
BRANCH   2   3
HETATM    3  C3  UNL     1     -32.318   8.076   2.586  1.00 20.00     0.073 C 
BRANCH   3   4
HETATM    4  C1  UNL     1     -32.159   7.878   1.095  1.00 20.00     0.231 C 
HETATM    5  O8  UNL     1     -32.302   8.755   0.250  1.00 20.00    -0.307 OA
ENDBRANCH   3   4
ENDBRANCH   2   3
BRANCH   2   6
HETATM    6  C5  UNL     1     -33.036   5.794   3.426  1.00 20.00     0.005 C 
BRANCH   6   7
HETATM    7  C4  UNL     1     -34.173   4.900   3.939  1.00 20.00     0.015 C 
BRANCH   7   8
HETATM    8  C6  UNL     1     -33.761   3.438   4.097  1.00 20.00     0.114 C 
HETATM    9 CL9  UNL     1     -32.437   3.240   5.268  1.00 20.00    -0.130 Cl
ENDBRANCH   7   8
ENDBRANCH   6   7
ENDBRANCH   2   6
TORSDOF 5
