REMARK  3 active torsions:
REMARK  status: ('A' for Active; 'I' for Inactive)
REMARK    1  A    between atoms: C6_6  and  C7_7 
REMARK    2  A    between atoms: C7_7  and  C8_8 
REMARK    3  A    between atoms: C8_8  and  C9_9 
ROOT
HETATM    1  C1  UNL     1     -33.394   7.743   4.352  1.00 20.00     0.069 C 
HETATM    2  C2  UNL     1     -33.737   4.706   4.072  1.00 20.00     0.002 C 
HETATM    3  C3  UNL     1     -35.135   5.216   4.419  1.00 20.00     0.002 C 
HETATM    4  C4  UNL     1     -33.183   5.663   3.017  1.00 20.00     0.024 C 
HETATM    5  C5  UNL     1     -35.362   6.459   3.557  1.00 20.00     0.024 C 
HETATM    6  C6  UNL     1     -33.956   6.972   3.222  1.00 20.00     0.049 C 
HETATM    7  N10 UNL     1     -32.953   8.347   5.239  1.00 20.00    -0.196 NA
ENDROOT
BRANCH   6   8
HETATM    8  C7  UNL     1     -33.950   7.842   1.966  1.00 20.00     0.026 C 
BRANCH   8   9
HETATM    9  C8  UNL     1     -32.530   8.248   1.581  1.00 20.00     0.017 C 
BRANCH   9  10
HETATM   10  C9  UNL     1     -32.532   9.086   0.310  1.00 20.00     0.114 C 
HETATM   11 CL11 UNL     1     -33.505  10.557   0.538  1.00 20.00    -0.130 Cl
ENDBRANCH   9  10
ENDBRANCH   8   9
ENDBRANCH   6   8
TORSDOF 3
