REMARK  0 active torsions:
REMARK  status: ('A' for Active; 'I' for Inactive)
ROOT
HETATM    1  C1  UNL     1     -33.804   4.304   3.791  1.00 20.00     0.069 C 
HETATM    2  C2  UNL     1     -32.698   7.835   2.999  1.00 20.00     0.002 C 
HETATM    3  C3  UNL     1     -32.751   7.208   1.606  1.00 20.00     0.002 C 
HETATM    4  C4  UNL     1     -33.039   6.716   3.983  1.00 20.00     0.024 C 
HETATM    5  C5  UNL     1     -33.122   5.739   1.813  1.00 20.00     0.024 C 
HETATM    6  C6  UNL     1     -33.843   5.698   3.165  1.00 20.00     0.045 C 
HETATM    7  C7  UNL     1     -35.250   6.130   3.024  1.00 20.00     0.031 C 
HETATM    8  N8  UNL     1     -33.775   3.246   4.266  1.00 20.00    -0.196 NA
ENDROOT
TORSDOF 0
