REMARK  2 active torsions:
REMARK  status: ('A' for Active; 'I' for Inactive)
REMARK    1  A    between atoms: C3_3  and  C4_4 
REMARK    2  A    between atoms: C5_5  and  C6_6 
ROOT
HETATM    1  C1  UNL     1     -34.565   5.220   4.101  1.00 20.00     0.087 C 
HETATM    2  C2  UNL     1     -34.061   6.179   3.182  1.00 20.00     0.093 C 
HETATM    3  C3  UNL     1     -33.168   5.844   2.240  1.00 20.00     0.011 C 
HETATM    4  N7  UNL     1     -34.979   4.439   4.854  1.00 20.00    -0.192 NA
ENDROOT
BRANCH   3   5
HETATM    5  C4  UNL     1     -32.634   6.793   1.289  1.00 20.00    -0.002 C 
HETATM    6  C5  UNL     1     -32.302   8.051   1.615  1.00 20.00    -0.012 C 
BRANCH   6   7
HETATM    7  C6  UNL     1     -31.741   9.034   0.640  1.00 20.00     0.141 C 
HETATM    8 CL8  UNL     1     -32.810  10.448   0.523  1.00 20.00    -0.126 Cl
ENDBRANCH   6   7
ENDBRANCH   3   5
TORSDOF 2
