REMARK  2 active torsions:
REMARK  status: ('A' for Active; 'I' for Inactive)
REMARK    1  A    between atoms: C6_6  and  C7_7 
REMARK    2  A    between atoms: C7_7  and  C8_8 
ROOT
HETATM    1  C1  UNL     1     -32.188   8.510   1.045  1.00 20.00     0.059 C 
HETATM    2  C6  UNL     1     -32.554   7.924   2.346  1.00 20.00     0.129 C 
HETATM    3  N9  UNL     1     -31.896   8.973   0.022  1.00 20.00    -0.197 NA
ENDROOT
BRANCH   2   4
HETATM    4  C7  UNL     1     -33.618   6.807   2.205  1.00 20.00     0.002 C 
HETATM    5  C2  UNL     1     -33.112   5.744   1.211  1.00 20.00     0.011 C 
BRANCH   4   6
HETATM    6  C8  UNL     1     -34.062   6.201   3.591  1.00 20.00    -0.047 C 
HETATM    7  C3  UNL     1     -35.562   6.412   3.870  1.00 20.00     0.015 C 
HETATM    8  C4  UNL     1     -33.258   6.851   4.741  1.00 20.00     0.015 C 
HETATM    9  C5  UNL     1     -33.771   4.684   3.642  1.00 20.00     0.015 C 
ENDBRANCH   4   6
ENDBRANCH   2   4
TORSDOF 2
