REMARK  1 active torsions:
REMARK  status: ('A' for Active; 'I' for Inactive)
REMARK    1  A    between atoms: C5_5  and  C6_6 
ROOT
HETATM    1  C1  UNL     1     -34.556   5.835   3.617  1.00 20.00     0.100 C 
HETATM    2  C2  UNL     1     -33.098   7.684   2.693  1.00 20.00     0.038 A 
HETATM    3  C3  UNL     1     -32.892   5.539   1.823  1.00 20.00     0.072 A 
HETATM    4  C4  UNL     1     -33.547   6.333   2.738  1.00 20.00     0.052 A 
HETATM    5  C5  UNL     1     -32.115   7.871   1.746  1.00 20.00    -0.002 A 
HETATM    6  N7  UNL     1     -35.375   5.431   4.333  1.00 20.00    -0.191 NA
HETATM    7  S8  UNL     1     -31.739   6.422   0.915  1.00 20.00    -0.104 SA
ENDROOT
BRANCH   5   8
HETATM    8  C6  UNL     1     -31.399   9.117   1.396  1.00 20.00     0.160 C 
HETATM    9 CL9  UNL     1     -31.989   9.783  -0.149  1.00 20.00    -0.125 Cl
ENDBRANCH   5   8
TORSDOF 1
