REMARK  0 active torsions:
REMARK  status: ('A' for Active; 'I' for Inactive)
ROOT
HETATM    1  C1  UNL     1     -33.463   4.060   4.214  1.00 20.00     0.068 C 
HETATM    2  C2  UNL     1     -33.266   8.450   3.160  1.00 20.00     0.009 A 
HETATM    3  C3  UNL     1     -32.488   8.451   2.000  1.00 20.00     0.019 A 
HETATM    4  C4  UNL     1     -32.895   6.075   1.670  1.00 20.00     0.028 A 
HETATM    5  C5  UNL     1     -33.857   7.261   3.553  1.00 20.00    -0.050 A 
HETATM    6  C6  UNL     1     -33.670   6.082   2.819  1.00 20.00    -0.033 A 
HETATM    7  C7  UNL     1     -32.305   7.273   1.260  1.00 20.00     0.011 A 
HETATM    8  C8  UNL     1     -34.698   7.010   4.764  1.00 20.00     0.041 C 
HETATM    9  C9  UNL     1     -35.358   5.670   4.396  1.00 20.00     0.028 C 
HETATM   10  C10 UNL     1     -34.381   4.925   3.462  1.00 20.00     0.126 C 
HETATM   11  N11 UNL     1     -32.737   3.377   4.808  1.00 20.00    -0.197 NA
HETATM   12 BR12 UNL     1     -31.239   7.306  -0.303  1.00 20.00    -0.051 Br
ENDROOT
TORSDOF 0
