REMARK  3 active torsions:
REMARK  status: ('A' for Active; 'I' for Inactive)
REMARK    1  A    between atoms: C4_4  and  C7_7 
REMARK    2  A    between atoms: C7_7  and  C8_8 
REMARK    3  A    between atoms: C8_8  and  C9_9 
ROOT
HETATM    1  C1  UNL     1     -33.369   6.715   3.129  1.00 20.00     0.141 C 
HETATM    2  C2  UNL     1     -34.061   5.446   3.557  1.00 20.00     0.152 C 
HETATM    3  C3  UNL     1     -32.369   5.191   1.525  1.00 20.00     0.086 C 
HETATM    4  C4  UNL     1     -32.723   6.655   1.755  1.00 20.00     0.065 C 
HETATM    5  O10 UNL     1     -33.378   7.726   3.826  1.00 20.00    -0.297 OA
HETATM    6  S11 UNL     1     -33.748   4.261   2.230  1.00 20.00    -0.161 SA
ENDROOT
BRANCH   4   7
HETATM    7  C7  UNL     1     -31.500   7.552   1.655  1.00 20.00     0.013 C 
BRANCH   7   8
HETATM    8  C8  UNL     1     -31.896   9.007   1.388  1.00 20.00     0.005 C 
BRANCH   8   9
HETATM    9  C9  UNL     1     -32.620   9.208   0.044  1.00 20.00    -0.023 C 
HETATM   10  C5  UNL     1     -31.712   8.766  -1.106  1.00 20.00     0.009 C 
HETATM   11  C6  UNL     1     -33.058  10.658  -0.172  1.00 20.00     0.009 C 
ENDBRANCH   8   9
ENDBRANCH   7   8
ENDBRANCH   4   7
TORSDOF 3
