REMARK  2 active torsions:
REMARK  status: ('A' for Active; 'I' for Inactive)
REMARK    1  A    between atoms: C5_5  and  C6_6 
REMARK    2  A    between atoms: C6_6  and  C7_7 
ROOT
HETATM    1  C1  UNL     1     -33.390   6.199   2.335  1.00 20.00     0.131 C 
HETATM    2  C2  UNL     1     -34.174   5.345   3.299  1.00 20.00     0.079 C 
HETATM    3  C3  UNL     1     -34.230   6.234   4.535  1.00 20.00     0.008 C 
HETATM    4  C4  UNL     1     -34.234   7.653   3.981  1.00 20.00     0.013 C 
HETATM    5  C5  UNL     1     -33.210   7.613   2.846  1.00 20.00     0.064 C 
HETATM    6  O8  UNL     1     -32.956   5.788   1.266  1.00 20.00    -0.298 OA
ENDROOT
BRANCH   5   7
HETATM    7  C6  UNL     1     -33.463   8.664   1.783  1.00 20.00     0.129 C 
BRANCH   7   8
HETATM    8  C7  UNL     1     -32.287   8.807   0.854  1.00 20.00     0.388 C 
HETATM    9  F9  UNL     1     -31.169   9.176   1.513  1.00 20.00    -0.171 F 
HETATM   10  F10 UNL     1     -32.549   9.757  -0.072  1.00 20.00    -0.171 F 
HETATM   11  F11 UNL     1     -32.026   7.657   0.196  1.00 20.00    -0.171 F 
ENDBRANCH   7   8
ENDBRANCH   5   7
TORSDOF 2
