REMARK  1 active torsions:
REMARK  status: ('A' for Active; 'I' for Inactive)
REMARK    1  A    between atoms: C4_4  and  O6_6 
ROOT
HETATM    1  C1  UNL     1     -34.037   7.588   3.675  1.00 20.00     0.038 C 
HETATM    2  C2  UNL     1     -32.624   7.928   3.209  1.00 20.00     0.081 C 
HETATM    3  C3  UNL     1     -33.228   5.935   2.049  1.00 20.00     0.110 C 
HETATM    4  C4  UNL     1     -34.361   6.232   3.034  1.00 20.00     0.124 C 
HETATM    5  C5  UNL     1     -32.555   7.275   1.848  1.00 20.00     0.246 C 
HETATM    6  F7  UNL     1     -31.291   7.147   1.408  1.00 20.00    -0.206 F 
HETATM    7  F8  UNL     1     -33.238   8.011   0.941  1.00 20.00    -0.206 F 
ENDROOT
BRANCH   4   8
HETATM    8  O6  UNL     1     -34.418   5.226   4.034  1.00 20.00    -0.395 OA
HETATM    9  H16 UNL     1     -34.625   4.395   3.579  1.00 20.00     0.210 HD
ENDBRANCH   4   8
TORSDOF 1
