REMARK  2 active torsions:
REMARK  status: ('A' for Active; 'I' for Inactive)
REMARK    1  A    between atoms: C5_5  and  C6_6 
REMARK    2  A    between atoms: C6_6  and  C7_7 
ROOT
HETATM    1  C1  UNL     1     -33.301   5.924   2.460  1.00 20.00     0.131 C 
HETATM    2  C2  UNL     1     -34.002   5.070   3.487  1.00 20.00     0.079 C 
HETATM    3  C3  UNL     1     -34.942   6.073   4.144  1.00 20.00     0.008 C 
HETATM    4  C4  UNL     1     -34.201   7.400   4.057  1.00 20.00     0.013 C 
HETATM    5  C5  UNL     1     -33.593   7.398   2.653  1.00 20.00     0.064 C 
HETATM    6  O8  UNL     1     -32.582   5.470   1.579  1.00 20.00    -0.298 OA
ENDROOT
BRANCH   5   7
HETATM    7  C6  UNL     1     -32.357   8.266   2.542  1.00 20.00     0.129 C 
BRANCH   7   8
HETATM    8  C7  UNL     1     -32.006   8.551   1.106  1.00 20.00     0.388 C 
HETATM    9  F9  UNL     1     -31.754   7.418   0.418  1.00 20.00    -0.171 F 
HETATM   10  F10 UNL     1     -30.896   9.320   1.050  1.00 20.00    -0.171 F 
HETATM   11  F11 UNL     1     -32.995   9.216   0.471  1.00 20.00    -0.171 F 
ENDBRANCH   7   8
ENDBRANCH   5   7
TORSDOF 2
