REMARK  1 active torsions:
REMARK  status: ('A' for Active; 'I' for Inactive)
REMARK    1  A    between atoms: C4_4  and  C6_6 
ROOT
HETATM    1  C1  UNL     1     -33.248   5.103   3.133  1.00 20.00     0.039 A 
HETATM    2  C2  UNL     1     -34.829   6.880   3.109  1.00 20.00     0.129 A 
HETATM    3  C3  UNL     1     -35.203   5.081   4.488  1.00 20.00     0.140 A 
HETATM    4  C4  UNL     1     -33.645   6.339   2.634  1.00 20.00    -0.000 A 
HETATM    5  C5  UNL     1     -34.037   4.455   4.077  1.00 20.00     0.052 A 
HETATM    6  N8  UNL     1     -35.621   6.281   4.026  1.00 20.00    -0.271 NA
HETATM    7 CL10 UNL     1     -33.580   2.930   4.715  1.00 20.00    -0.083 Cl
ENDROOT
BRANCH   4   8
HETATM    8  C6  UNL     1     -32.844   7.041   1.647  1.00 20.00     0.017 C 
HETATM    9  C7  UNL     1     -32.300   8.429   1.992  1.00 20.00     0.062 C 
HETATM   10  S9  UNL     1     -32.421   6.392   0.132  1.00 20.00    -0.084 SA
ENDBRANCH   4   8
TORSDOF 1
