REMARK  1 active torsions:
REMARK  status: ('A' for Active; 'I' for Inactive)
REMARK    1  A    between atoms: C3_3  and  C9_9 
ROOT
HETATM    1  C1  UNL     1     -34.764   6.559   3.700  1.00 20.00     0.017 A 
HETATM    2  C2  UNL     1     -34.939   5.207   4.116  1.00 20.00     0.032 A 
HETATM    3  C3  UNL     1     -33.494   6.792   3.220  1.00 20.00    -0.011 A 
HETATM    4  C4  UNL     1     -33.796   4.459   3.939  1.00 20.00     0.075 A 
HETATM    5  S11 UNL     1     -32.519   5.385   3.273  1.00 20.00    -0.082 SA
HETATM    6 CL12 UNL     1     -33.559   2.801   4.301  1.00 20.00    -0.076 Cl
ENDROOT
BRANCH   3   7
HETATM    7  C9  UNL     1     -32.912   8.081   2.687  1.00 20.00     0.033 C 
HETATM    8  C7  UNL     1     -33.645   8.635   1.461  1.00 20.00     0.088 C 
HETATM    9  C5  UNL     1     -32.575   9.486   0.826  1.00 20.00     0.127 C 
HETATM   10  C6  UNL     1     -31.213   9.237   1.423  1.00 20.00     0.079 C 
HETATM   11  O10 UNL     1     -32.788  10.292  -0.072  1.00 20.00    -0.298 OA
HETATM   12  C8  UNL     1     -31.452   7.968   2.235  1.00 20.00     0.018 C 
ENDBRANCH   3   7
TORSDOF 1
