REMARK  0 active torsions:
REMARK  status: ('A' for Active; 'I' for Inactive)
ROOT
HETATM    1  C1  UNL     1     -32.059   8.431   0.978  1.00 20.00     0.017 C 
HETATM    2  C2  UNL     1     -32.442   7.364   1.372  1.00 20.00    -0.090 C 
HETATM    3  C3  UNL     1     -32.891   6.097   1.832  1.00 20.00     0.059 C 
HETATM    4  C4  UNL     1     -33.597   5.969   2.964  1.00 20.00    -0.022 C 
HETATM    5  C5  UNL     1     -33.975   7.119   3.838  1.00 20.00     0.036 C 
ENDROOT
TORSDOF 0
