REMARK  2 active torsions:
REMARK  status: ('A' for Active; 'I' for Inactive)
REMARK    1  A    between atoms: C1_1  and  C3_3 
REMARK    2  A    between atoms: C2_2  and  C8_8 
ROOT
HETATM    1  C4  UNL     1     -35.324   6.581   4.092  1.00 20.00     0.011 C 
HETATM    2  C5  UNL     1     -34.031   7.382   4.217  1.00 20.00     0.010 C 
HETATM    3  C6  UNL     1     -35.112   5.078   4.262  1.00 20.00     0.074 C 
HETATM    4  C7  UNL     1     -33.232   5.779   2.353  1.00 20.00     0.082 C 
HETATM    5  C8  UNL     1     -33.055   7.137   3.049  1.00 20.00     0.017 C 
HETATM    6  S11 UNL     1     -33.579   4.433   3.520  1.00 20.00    -0.168 SA
ENDROOT
BRANCH   5   7
HETATM    7  C2  UNL     1     -33.148   8.234   2.024  1.00 20.00    -0.018 C 
HETATM    8  C1  UNL     1     -32.102   8.658   1.303  1.00 20.00     0.046 C 
BRANCH   8   9
HETATM    9  C3  UNL     1     -32.262   9.751   0.303  1.00 20.00     0.145 C 
HETATM   10  C9  UNL     1     -31.030  10.160  -0.460  1.00 20.00     0.096 C 
HETATM   11  O10 UNL     1     -33.340  10.309   0.112  1.00 20.00    -0.294 OA
ENDBRANCH   8   9
ENDBRANCH   5   7
TORSDOF 2
