REMARK  2 active torsions:
REMARK  status: ('A' for Active; 'I' for Inactive)
REMARK    1  A    between atoms: C6_6  and  C8_8 
REMARK    2  A    between atoms: C7_7  and  C9_9 
ROOT
HETATM    1  C1  UNL     1     -34.303   5.773   3.822  1.00 20.00     0.132 C 
HETATM    2  C2  UNL     1     -34.571   7.386   4.132  1.00 20.00     0.084 C 
HETATM    3  C6  UNL     1     -33.776   6.259   2.467  1.00 20.00     0.064 C 
HETATM    4  C7  UNL     1     -33.214   7.464   3.343  1.00 20.00     0.008 C 
HETATM    5  O10 UNL     1     -34.437   4.711   4.374  1.00 20.00    -0.298 OA
ENDROOT
BRANCH   3   6
HETATM    6  C8  UNL     1     -32.578   5.998   1.553  1.00 20.00    -0.003 C 
HETATM    7  C3  UNL     1     -32.868   6.902   0.325  1.00 20.00     0.006 C 
HETATM    8  C4  UNL     1     -32.828   8.316   0.958  1.00 20.00     0.005 C 
HETATM    9  C9  UNL     1     -32.224   8.069   2.351  1.00 20.00    -0.009 C 
HETATM   10  C5  UNL     1     -31.391   6.786   2.119  1.00 20.00     0.010 C 
ENDBRANCH   3   6
TORSDOF 2
