REMARK  2 active torsions:
REMARK  status: ('A' for Active; 'I' for Inactive)
REMARK    1  A    between atoms: C6_6  and  O11_11 
REMARK    2  A    between atoms: C9_9  and  O11_11 
ROOT
HETATM    1  C1  UNL     1     -34.412   7.816   4.218  1.00 20.00     0.002 C 
HETATM    2  C2  UNL     1     -32.907   7.621   3.899  1.00 20.00     0.015 C 
HETATM    3  C3  UNL     1     -34.706   7.578   2.715  1.00 20.00     0.015 C 
HETATM    4  C4  UNL     1     -32.150   5.429   1.720  1.00 20.00     0.069 C 
HETATM    5  C5  UNL     1     -32.589   6.875   1.353  1.00 20.00     0.173 C 
HETATM    6  C6  UNL     1     -33.374   5.354   2.676  1.00 20.00     0.135 C 
HETATM    7  C7  UNL     1     -33.361   6.881   2.653  1.00 20.00     0.015 C 
HETATM    8  O10 UNL     1     -31.507   7.761   1.267  1.00 20.00    -0.234 OA
ENDROOT
BRANCH   6   9
HETATM    9  O11 UNL     1     -33.153   4.697   3.936  1.00 20.00    -0.385 OA
BRANCH   9  10
HETATM   10  C9  UNL     1     -33.201   3.290   3.788  1.00 20.00     0.163 C 
HETATM   11  C8  UNL     1     -32.963   2.644   5.136  1.00 20.00     0.033 C 
ENDBRANCH   9  10
ENDBRANCH   6   9
TORSDOF 2
