REMARK  2 active torsions:
REMARK  status: ('A' for Active; 'I' for Inactive)
REMARK    1  A    between atoms: C6_6  and  O11_11 
REMARK    2  A    between atoms: C9_9  and  O11_11 
ROOT
HETATM    1  C1  UNL     1     -34.138   7.993   4.702  1.00 20.00     0.002 C 
HETATM    2  C2  UNL     1     -34.301   8.354   3.204  1.00 20.00     0.015 C 
HETATM    3  C3  UNL     1     -32.704   7.506   4.377  1.00 20.00     0.015 C 
HETATM    4  C4  UNL     1     -32.101   6.208   1.547  1.00 20.00     0.069 C 
HETATM    5  C5  UNL     1     -33.475   6.070   2.261  1.00 20.00     0.173 C 
HETATM    6  C6  UNL     1     -32.152   7.735   1.849  1.00 20.00     0.135 C 
HETATM    7  C7  UNL     1     -33.161   7.394   2.933  1.00 20.00     0.015 C 
HETATM    8  O10 UNL     1     -33.544   4.941   3.089  1.00 20.00    -0.234 OA
ENDROOT
BRANCH   6   9
HETATM    9  O11 UNL     1     -32.623   8.556   0.761  1.00 20.00    -0.385 OA
BRANCH   9  10
HETATM   10  C9  UNL     1     -32.219   9.901   0.932  1.00 20.00     0.163 C 
HETATM   11  C8  UNL     1     -32.734  10.722  -0.231  1.00 20.00     0.033 C 
ENDBRANCH   9  10
ENDBRANCH   6   9
TORSDOF 2
