REMARK  2 active torsions:
REMARK  status: ('A' for Active; 'I' for Inactive)
REMARK    1  A    between atoms: C3_3  and  C6_6 
REMARK    2  A    between atoms: C6_6  and  C7_7 
ROOT
HETATM    1  C1  UNL     1     -32.406   8.880   0.594  1.00 20.00    -0.176 C 
HETATM    2  C2  UNL     1     -32.767   9.520  -0.476  1.00 20.00     0.091 C 
HETATM    3  C3  UNL     1     -32.042   8.240   1.667  1.00 20.00     0.067 C 
ENDROOT
BRANCH   3   4
HETATM    4  C6  UNL     1     -32.726   7.019   2.211  1.00 20.00     0.021 C 
BRANCH   4   5
HETATM    5  C7  UNL     1     -33.837   7.349   3.225  1.00 20.00    -0.021 C 
HETATM    6  C4  UNL     1     -33.302   8.113   4.439  1.00 20.00     0.009 C 
HETATM    7  C5  UNL     1     -34.521   6.060   3.687  1.00 20.00     0.009 C 
ENDBRANCH   4   5
ENDBRANCH   3   4
TORSDOF 2
