REMARK  3 active torsions:
REMARK  status: ('A' for Active; 'I' for Inactive)
REMARK    1  A    between atoms: C1_1  and  C6_6 
REMARK    2  A    between atoms: C6_6  and  C7_7 
REMARK    3  A    between atoms: C6_6  and  O9_9 
ROOT
HETATM    1  C2  UNL     1     -32.284   5.018   3.063  1.00 20.00     0.054 C 
HETATM    2  C6  UNL     1     -33.327   5.812   2.268  1.00 20.00     0.113 C 
ENDROOT
BRANCH   2   3
HETATM    3  C1  UNL     1     -32.574   6.778   1.359  1.00 20.00     0.269 C 
HETATM    4  O8  UNL     1     -31.480   7.267   1.623  1.00 20.00    -0.304 OA
ENDBRANCH   2   3
BRANCH   2   5
HETATM    5  C7  UNL     1     -34.390   6.559   3.149  1.00 20.00    -0.014 C 
HETATM    6  C3  UNL     1     -35.430   7.276   2.256  1.00 20.00     0.018 C 
HETATM    7  C4  UNL     1     -33.714   7.646   4.017  1.00 20.00     0.018 C 
HETATM    8  C5  UNL     1     -35.148   5.606   4.096  1.00 20.00     0.018 C 
ENDBRANCH   2   5
BRANCH   2   9
HETATM    9  O9  UNL     1     -34.008   4.897   1.406  1.00 20.00    -0.382 OA
HETATM   10  H23 UNL     1     -33.323   4.455   0.883  1.00 20.00     0.211 HD
ENDBRANCH   2   9
TORSDOF 3
