REMARK  4 active torsions:
REMARK  status: ('A' for Active; 'I' for Inactive)
REMARK    1  A    between atoms: C3_3  and  C4_4 
REMARK    2  A    between atoms: C3_3  and  C6_6 
REMARK    3  A    between atoms: C4_4  and  O7_7 
REMARK    4  A    between atoms: C5_5  and  C6_6 
ROOT
HETATM    1  C3  UNL     1     -33.556   8.511   1.962  1.00 20.00     0.031 C 
ENDROOT
BRANCH   1   2
HETATM    2  C4  UNL     1     -32.451   9.117   1.105  1.00 20.00     0.167 C 
BRANCH   2   3
HETATM    3  O7  UNL     1     -32.978  10.240   0.409  1.00 20.00    -0.396 OA
HETATM    4  C2  UNL     1     -31.989  10.862  -0.399  1.00 20.00     0.201 C 
ENDBRANCH   2   3
ENDBRANCH   1   2
BRANCH   1   5
HETATM    5  C6  UNL     1     -33.117   7.266   2.756  1.00 20.00    -0.003 C 
HETATM    6  C1  UNL     1     -33.034   6.056   1.819  1.00 20.00     0.011 C 
BRANCH   5   7
HETATM    7  C5  UNL     1     -33.979   6.961   3.991  1.00 20.00     0.119 C 
HETATM    8 CL8  UNL     1     -35.648   6.484   3.595  1.00 20.00    -0.130 Cl
ENDBRANCH   5   7
ENDBRANCH   1   5
TORSDOF 4
