REMARK  3 active torsions:
REMARK  status: ('A' for Active; 'I' for Inactive)
REMARK    1  A    between atoms: C4_4  and  O9_9 
REMARK    2  A    between atoms: C6_6  and  C7_7 
REMARK    3  A    between atoms: C6_6  and  N8_8 
ROOT
HETATM    1  C1  UNL     1     -33.342   7.657   3.621  1.00 20.00     0.064 C 
HETATM    2  C2  UNL     1     -32.092   7.957   2.806  1.00 20.00     0.275 C 
HETATM    3  C3  UNL     1     -33.174   6.273   1.633  1.00 20.00     0.304 C 
HETATM    4  C4  UNL     1     -34.005   6.492   2.893  1.00 20.00     0.150 C 
HETATM    5  N8  UNL     1     -32.381   7.496   1.441  1.00 20.00     0.092 N 
ENDROOT
BRANCH   5   6
HETATM    6  C6  UNL     1     -33.123   8.501   0.679  1.00 20.00     0.287 C 
BRANCH   6   7
HETATM    7  C7  UNL     1     -32.238   9.638   0.198  1.00 20.00     0.144 C 
HETATM    8 CL10 UNL     1     -33.174  10.844  -0.721  1.00 20.00    -0.129 Cl
ENDBRANCH   6   7
ENDBRANCH   5   6
BRANCH   4   9
HETATM    9  O9  UNL     1     -33.983   5.321   3.693  1.00 20.00    -0.389 OA
HETATM   10  C5  UNL     1     -35.015   5.336   4.670  1.00 20.00     0.202 C 
ENDBRANCH   4   9
TORSDOF 3
