REMARK  2 active torsions:
REMARK  status: ('A' for Active; 'I' for Inactive)
REMARK    1  A    between atoms: C1_1  and  C6_6 
REMARK    2  A    between atoms: C2_2  and  C7_7 
ROOT
HETATM    1  C1  UNL     1     -33.552   7.424   3.632  1.00 20.00    -0.015 C 
HETATM    2  C2  UNL     1     -33.510   7.786   2.340  1.00 20.00    -0.021 C 
ENDROOT
BRANCH   2   3
HETATM    3  C7  UNL     1     -32.336   8.392   1.583  1.00 20.00    -0.034 C 
HETATM    4  C3  UNL     1     -32.767   9.771   1.052  1.00 20.00     0.018 C 
HETATM    5  C4  UNL     1     -31.062   8.571   2.430  1.00 20.00     0.018 C 
HETATM    6  C5  UNL     1     -32.007   7.475   0.392  1.00 20.00     0.018 C 
ENDBRANCH   2   3
BRANCH   1   7
HETATM    7  C6  UNL     1     -34.759   6.828   4.281  1.00 20.00     0.141 C 
HETATM    8 CL8  UNL     1     -34.714   5.058   4.130  1.00 20.00    -0.126 Cl
ENDBRANCH   1   7
TORSDOF 2
