REMARK  3 active torsions:
REMARK  status: ('A' for Active; 'I' for Inactive)
REMARK    1  A    between atoms: C1_1  and  C5_5 
REMARK    2  A    between atoms: C2_2  and  C6_6 
REMARK    3  A    between atoms: C6_6  and  C7_7 
ROOT
HETATM    1  C1  UNL     1     -32.782   8.125   1.208  1.00 20.00    -0.026 C 
HETATM    2  C2  UNL     1     -32.848   7.830   2.516  1.00 20.00    -0.029 C 
ENDROOT
BRANCH   1   3
HETATM    3  C5  UNL     1     -32.084   9.283   0.623  1.00 20.00     0.008 A 
HETATM    4  C3  UNL     1     -32.549   9.798  -0.702  1.00 20.00     0.009 A 
HETATM    5  C4  UNL     1     -32.814  10.587   0.545  1.00 20.00     0.009 A 
ENDBRANCH   1   3
BRANCH   2   6
HETATM    6  C6  UNL     1     -33.566   6.634   3.072  1.00 20.00     0.042 C 
BRANCH   6   7
HETATM    7  C7  UNL     1     -34.679   7.014   4.044  1.00 20.00     0.118 C 
HETATM    8 CL8  UNL     1     -35.490   5.574   4.709  1.00 20.00    -0.130 Cl
ENDBRANCH   6   7
ENDBRANCH   2   6
TORSDOF 3
