REMARK  3 active torsions:
REMARK  status: ('A' for Active; 'I' for Inactive)
REMARK    1  A    between atoms: C1_1  and  C3_3 
REMARK    2  A    between atoms: C2_2  and  C6_6 
REMARK    3  A    between atoms: C3_3  and  O10_10 
ROOT
HETATM    1  C1  UNL     1     -33.676   6.642   3.753  1.00 20.00     0.014 C 
HETATM    2  C2  UNL     1     -33.063   6.831   2.560  1.00 20.00    -0.067 C 
HETATM    3  C7  UNL     1     -33.581   7.552   4.944  1.00 20.00     0.056 C 
HETATM    4  C8  UNL     1     -33.192   5.925   1.381  1.00 20.00     0.044 C 
ENDROOT
BRANCH   1   5
HETATM    5  C3  UNL     1     -34.562   5.460   3.918  1.00 20.00     0.171 C 
HETATM    6  O9  UNL     1     -34.224   4.294   3.801  1.00 20.00    -0.646 OA
BRANCH   5   7
HETATM    7  O10 UNL     1     -35.817   5.872   4.217  1.00 20.00    -0.773 OA
HETATM    8  H22 UNL     1     -36.433   5.118   4.331  1.00 20.00     0.167 HD
ENDBRANCH   5   7
ENDBRANCH   1   5
BRANCH   2   9
HETATM    9  C6  UNL     1     -32.131   7.999   2.320  1.00 20.00     0.015 A 
HETATM   10  C4  UNL     1     -31.972   8.454   0.923  1.00 20.00     0.010 A 
HETATM   11  C5  UNL     1     -32.749   9.276   1.908  1.00 20.00     0.010 A 
ENDBRANCH   2   9
TORSDOF 3
