REMARK  0 active torsions:
REMARK  status: ('A' for Active; 'I' for Inactive)
ROOT
HETATM    1  C1  UNL     1     -33.828   7.911   3.770  1.00 20.00     0.109 C 
HETATM    2  C2  UNL     1     -33.980   6.396   3.609  1.00 20.00     0.226 C 
HETATM    3  C3  UNL     1     -32.047   6.123   2.142  1.00 20.00     0.230 C 
HETATM    4  C4  UNL     1     -31.646   7.613   2.089  1.00 20.00     0.076 C 
HETATM    5  C5  UNL     1     -35.457   6.012   3.736  1.00 20.00     0.043 C 
HETATM    6  C6  UNL     1     -31.600   5.376   0.879  1.00 20.00     0.043 C 
HETATM    7  C7  UNL     1     -32.236   8.398   0.915  1.00 20.00     0.023 C 
HETATM    8  N8  UNL     1     -33.493   5.923   2.306  1.00 20.00     0.093 N 
HETATM    9  S9  UNL     1     -32.091   8.434   3.665  1.00 20.00    -0.160 SA
HETATM   10  H24 UNL     1     -33.708   4.930   2.211  1.00 20.00     0.316 HD
ENDROOT
TORSDOF 0
