REMARK  0 active torsions:
REMARK  status: ('A' for Active; 'I' for Inactive)
ROOT
HETATM    1  C1  UNL     1     -34.004   6.709   3.305  1.00 20.00    -0.088 C 
HETATM    2  C2  UNL     1     -35.304   6.816   3.615  1.00 20.00     0.014 C 
HETATM    3  C3  UNL     1     -33.011   7.803   3.591  1.00 20.00     0.033 C 
HETATM    4  C4  UNL     1     -33.430   5.489   2.628  1.00 20.00     0.042 C 
HETATM    5  C5  UNL     1     -32.247   8.191   2.325  1.00 20.00     0.005 C 
HETATM    6  C6  UNL     1     -31.632   6.973   1.628  1.00 20.00     0.009 C 
HETATM    7  C7  UNL     1     -32.660   5.850   1.333  1.00 20.00    -0.044 C 
HETATM    8  C8  UNL     1     -31.908   4.603   0.832  1.00 20.00     0.015 C 
HETATM    9  C9  UNL     1     -33.640   6.292   0.228  1.00 20.00     0.015 C 
ENDROOT
TORSDOF 0
