REMARK  3 active torsions:
REMARK  status: ('A' for Active; 'I' for Inactive)
REMARK    1  A    between atoms: C6_6  and  C8_8 
REMARK    2  A    between atoms: C6_6  and  C9_9 
REMARK    3  A    between atoms: C9_9  and  O10_10 
ROOT
HETATM    1  C1  UNL     1     -34.206   5.245   2.962  1.00 20.00     0.000 C 
HETATM    2  C2  UNL     1     -32.943   5.223   2.109  1.00 20.00     0.001 C 
HETATM    3  C3  UNL     1     -34.196   6.393   3.965  1.00 20.00     0.001 C 
HETATM    4  C4  UNL     1     -32.702   6.567   1.422  1.00 20.00     0.011 C 
HETATM    5  C5  UNL     1     -33.958   7.739   3.280  1.00 20.00     0.011 C 
HETATM    6  C6  UNL     1     -32.687   7.764   2.400  1.00 20.00    -0.019 C 
ENDROOT
BRANCH   6   7
HETATM    7  C8  UNL     1     -32.667   9.073   1.589  1.00 20.00     0.007 C 
HETATM    8  C7  UNL     1     -31.461   9.149   0.718  1.00 20.00     0.006 C 
ENDBRANCH   6   7
BRANCH   6   9
HETATM    9  C9  UNL     1     -31.420   7.731   3.277  1.00 20.00     0.173 C 
BRANCH   9  10
HETATM   10  O10 UNL     1     -31.458   8.848   4.137  1.00 20.00    -0.400 OA
HETATM   11  H28 UNL     1     -30.654   8.818   4.687  1.00 20.00     0.209 HD
ENDBRANCH   9  10
ENDBRANCH   6   9
TORSDOF 3
