REMARK  2 active torsions:
REMARK  status: ('A' for Active; 'I' for Inactive)
REMARK    1  A    between atoms: C2_2  and  C6_6 
REMARK    2  A    between atoms: C3_3  and  O7_7 
ROOT
HETATM    1  C1  UNL     1     -32.400   6.821   1.813  1.00 20.00     0.045 A 
HETATM    2  C2  UNL     1     -33.150   8.042   1.347  1.00 20.00     0.022 A 
HETATM    3  C3  UNL     1     -32.906   7.822   2.820  1.00 20.00     0.058 A 
HETATM    4  C4  UNL     1     -34.043   7.464   3.718  1.00 20.00     0.046 C 
ENDROOT
BRANCH   3   5
HETATM    5  O7  UNL     1     -31.904   8.636   3.453  1.00 20.00    -0.390 OA
HETATM    6  H19 UNL     1     -31.312   8.022   3.907  1.00 20.00     0.210 HD
ENDBRANCH   3   5
BRANCH   2   7
HETATM    7  C6  UNL     1     -32.439   9.112   0.590  1.00 20.00     0.003 C 
HETATM    8  C5  UNL     1     -33.129  10.450   0.675  1.00 20.00     0.005 C 
ENDBRANCH   2   7
TORSDOF 2
