REMARK  3 active torsions:
REMARK  status: ('A' for Active; 'I' for Inactive)
REMARK    1  A    between atoms: C1_1  and  C6_6 
REMARK    2  A    between atoms: C2_2  and  C7_7 
REMARK    3  A    between atoms: C3_3  and  C7_7 
ROOT
HETATM    1  C1  UNL     1     -33.112   8.352   1.416  1.00 20.00    -0.026 C 
HETATM    2  C2  UNL     1     -32.872   7.329   2.251  1.00 20.00    -0.020 C 
ENDROOT
BRANCH   2   3
HETATM    3  C7  UNL     1     -33.856   6.239   2.540  1.00 20.00     0.140 C 
BRANCH   3   4
HETATM    4  C3  UNL     1     -34.715   6.683   3.719  1.00 20.00     0.176 C 
HETATM    5  O8  UNL     1     -35.630   5.877   4.050  1.00 20.00    -0.648 OA
HETATM    6  O9  UNL     1     -34.413   7.808   4.210  1.00 20.00    -0.648 OA
ENDBRANCH   3   4
ENDBRANCH   2   3
BRANCH   1   7
HETATM    7  C6  UNL     1     -32.178   9.450   1.110  1.00 20.00     0.008 A 
HETATM    8  C4  UNL     1     -32.175  10.016  -0.274  1.00 20.00     0.009 A 
HETATM    9  C5  UNL     1     -32.740  10.813   0.864  1.00 20.00     0.009 A 
ENDBRANCH   1   7
TORSDOF 3
