REMARK  3 active torsions:
REMARK  status: ('A' for Active; 'I' for Inactive)
REMARK    1  A    between atoms: C4_4  and  C5_5 
REMARK    2  A    between atoms: C5_5  and  C6_6 
REMARK    3  A    between atoms: C6_6  and  N8_8 
ROOT
HETATM    1  C1  UNL     1     -34.321   4.624   4.130  1.00 20.00     0.177 C 
HETATM    2  N7  UNL     1     -33.743   3.648   4.370  1.00 20.00    -0.172 NA
HETATM    3  N8  UNL     1     -34.983   5.793   3.865  1.00 20.00    -0.329 N 
HETATM    4  H18 UNL     1     -35.992   5.712   3.602  1.00 20.00     0.171 HD
ENDROOT
BRANCH   3   5
HETATM    5  C6  UNL     1     -34.602   7.087   4.359  1.00 20.00     0.132 C 
BRANCH   5   6
HETATM    6  C5  UNL     1     -33.212   7.501   3.892  1.00 20.00     0.025 C 
BRANCH   6   7
HETATM    7  C4  UNL     1     -33.104   7.596   2.377  1.00 20.00    -0.013 A 
HETATM    8  C2  UNL     1     -31.757   7.551   1.709  1.00 20.00     0.005 A 
HETATM    9  C3  UNL     1     -32.704   6.392   1.570  1.00 20.00     0.005 A 
ENDBRANCH   6   7
ENDBRANCH   5   6
ENDBRANCH   3   5
TORSDOF 3
