REMARK  1 active torsions:
REMARK  status: ('A' for Active; 'I' for Inactive)
REMARK    1  A    between atoms: C1_1  and  C7_7 
ROOT
HETATM    1  C2  UNL     1     -30.584   7.015   1.639  1.00 20.00     0.002 C 
HETATM    2  C3  UNL     1     -31.603   6.021   1.083  1.00 20.00     0.010 C 
HETATM    3  C4  UNL     1     -31.173   8.398   1.938  1.00 20.00     0.009 C 
HETATM    4  C5  UNL     1     -34.068   5.357   1.509  1.00 20.00     0.026 A 
HETATM    5  C6  UNL     1     -33.414   7.775   0.874  1.00 20.00     0.019 C 
HETATM    6  C7  UNL     1     -33.547   5.945   2.794  1.00 20.00     0.096 A 
HETATM    7  C8  UNL     1     -33.007   6.429   1.452  1.00 20.00    -0.025 A 
HETATM    8  C9  UNL     1     -32.279   8.836   0.951  1.00 20.00    -0.047 C 
HETATM    9  C10 UNL     1     -32.867  10.175   1.436  1.00 20.00     0.015 C 
HETATM   10  C11 UNL     1     -31.674   9.069  -0.448  1.00 20.00     0.015 C 
ENDROOT
BRANCH   6  11
HETATM   11  C1  UNL     1     -34.437   6.795   3.560  1.00 20.00     0.177 C 
HETATM   12  O12 UNL     1     -35.563   6.293   3.828  1.00 20.00    -0.648 OA
HETATM   13  O13 UNL     1     -33.962   7.927   3.857  1.00 20.00    -0.648 OA
ENDBRANCH   6  11
TORSDOF 1
