REMARK  0 active torsions:
REMARK  status: ('A' for Active; 'I' for Inactive)
ROOT
HETATM    1  C1  UNL     1     -32.114   7.711   1.354  1.00 20.00     0.290 C 
HETATM    2  C2  UNL     1     -33.258   7.804   3.403  1.00 20.00     0.344 C 
HETATM    3  C3  UNL     1     -32.511   6.227   1.410  1.00 20.00     0.029 C 
HETATM    4  C4  UNL     1     -31.344   5.331   1.835  1.00 20.00     0.028 C 
HETATM    5  C5  UNL     1     -33.100   5.753   0.083  1.00 20.00     0.028 C 
HETATM    6  N6  UNL     1     -32.022   8.200   2.732  1.00 20.00     0.093 N 
HETATM    7  S7  UNL     1     -33.784   6.208   2.720  1.00 20.00    -0.128 SA
HETATM    8  H18 UNL     1     -31.239   7.738   3.193  1.00 20.00     0.316 HD
ENDROOT
TORSDOF 0
