REMARK  4 active torsions:
REMARK  status: ('A' for Active; 'I' for Inactive)
REMARK    1  A    between atoms: C2_2  and  C8_8 
REMARK    2  A    between atoms: C2_2  and  C9_9 
REMARK    3  A    between atoms: C3_3  and  C8_8 
REMARK    4  A    between atoms: C3_3  and  C10_10 
ROOT
HETATM    1  C3  UNL     1     -33.427   6.417   2.312  1.00 20.00     0.138 C 
HETATM    2  O11 UNL     1     -32.728   5.416   2.132  1.00 20.00    -0.297 OA
ENDROOT
BRANCH   1   3
HETATM    3  C8  UNL     1     -33.453   7.548   1.286  1.00 20.00     0.112 C 
BRANCH   3   4
HETATM    4  C2  UNL     1     -32.384   8.569   1.576  1.00 20.00    -0.083 C 
HETATM    5  C1  UNL     1     -31.251   8.226   2.211  1.00 20.00     0.014 C 
BRANCH   4   6
HETATM    6  C9  UNL     1     -32.632   9.994   1.135  1.00 20.00     0.029 C 
HETATM    7  C4  UNL     1     -32.120  10.274  -0.271  1.00 20.00     0.010 C 
ENDBRANCH   4   6
ENDBRANCH   3   4
ENDBRANCH   1   3
BRANCH   1   8
HETATM    8  C10 UNL     1     -34.316   6.557   3.565  1.00 20.00     0.010 C 
HETATM    9  C5  UNL     1     -35.782   6.674   3.130  1.00 20.00     0.022 C 
HETATM   10  C6  UNL     1     -34.125   5.351   4.494  1.00 20.00     0.022 C 
HETATM   11  C7  UNL     1     -33.925   7.832   4.334  1.00 20.00     0.022 C 
ENDBRANCH   1   8
TORSDOF 4
