REMARK  2 active torsions:
REMARK  status: ('A' for Active; 'I' for Inactive)
REMARK    1  A    between atoms: C1_1  and  C2_2 
REMARK    2  A    between atoms: C1_1  and  C3_3 
ROOT
HETATM    1  C1  UNL     1     -32.963   7.529   3.173  1.00 20.00     0.299 C 
HETATM    2  F4  UNL     1     -32.932   8.892   3.222  1.00 20.00    -0.238 F 
ENDROOT
BRANCH   1   3
HETATM    3  C2  UNL     1     -32.628   7.106   1.761  1.00 20.00     0.392 C 
HETATM    4  F5  UNL     1     -31.373   7.502   1.439  1.00 20.00    -0.211 F 
HETATM    5  F6  UNL     1     -32.646   5.752   1.681  1.00 20.00    -0.211 F 
ENDBRANCH   1   3
BRANCH   1   6
HETATM    6  C3  UNL     1     -34.337   7.077   3.612  1.00 20.00     0.392 C 
HETATM    7  F7  UNL     1     -34.564   7.449   4.896  1.00 20.00    -0.211 F 
HETATM    8  F8  UNL     1     -34.397   5.723   3.579  1.00 20.00    -0.211 F 
ENDBRANCH   1   6
TORSDOF 2
