REMARK  0 active torsions:
REMARK  status: ('A' for Active; 'I' for Inactive)
ROOT
HETATM    1  C1  UNL     1     -32.580   8.975   1.960  1.00 20.00    -0.021 C 
HETATM    2  C2  UNL     1     -32.023   8.448   0.857  1.00 20.00    -0.025 C 
HETATM    3  C3  UNL     1     -33.352   6.764   2.685  1.00 20.00    -0.076 C 
HETATM    4  C4  UNL     1     -34.434   6.339   3.342  1.00 20.00    -0.027 C 
HETATM    5  C5  UNL     1     -32.742   6.130   1.440  1.00 20.00     0.043 C 
HETATM    6  C6  UNL     1     -31.106   7.345   2.672  1.00 20.00     0.022 C 
HETATM    7  C7  UNL     1     -32.466   7.940   3.056  1.00 20.00     0.037 C 
HETATM    8  C8  UNL     1     -31.525   7.063   1.223  1.00 20.00     0.013 C 
HETATM    9  C9  UNL     1     -34.988   7.002   4.560  1.00 20.00     0.036 C 
ENDROOT
TORSDOF 0
