REMARK  3 active torsions:
REMARK  status: ('A' for Active; 'I' for Inactive)
REMARK    1  A    between atoms: C2_2  and  C6_6 
REMARK    2  A    between atoms: C6_6  and  C7_7 
REMARK    3  A    between atoms: C7_7  and  C8_8 
ROOT
HETATM    1  C6  UNL     1     -32.573   8.065   2.088  1.00 20.00     0.027 C 
ENDROOT
BRANCH   1   2
HETATM    2  C2  UNL     1     -32.050   8.352   0.710  1.00 20.00    -0.031 C 
HETATM    3  C1  UNL     1     -32.141   9.549   0.113  1.00 20.00    -0.035 C 
HETATM    4  C3  UNL     1     -32.772  10.747   0.742  1.00 20.00     0.035 C 
ENDBRANCH   1   2
BRANCH   1   5
HETATM    5  C7  UNL     1     -32.917   6.586   2.303  1.00 20.00     0.007 C 
BRANCH   5   6
HETATM    6  C8  UNL     1     -33.517   6.239   3.681  1.00 20.00    -0.022 C 
HETATM    7  C4  UNL     1     -34.820   7.017   3.885  1.00 20.00     0.009 C 
HETATM    8  C5  UNL     1     -33.782   4.741   3.840  1.00 20.00     0.009 C 
ENDBRANCH   5   6
ENDBRANCH   1   5
TORSDOF 3
