REMARK  3 active torsions:
REMARK  status: ('A' for Active; 'I' for Inactive)
REMARK    1  A    between atoms: C5_5  and  C7_7 
REMARK    2  A    between atoms: C5_5  and  N8_8 
REMARK    3  A    between atoms: C6_6  and  C7_7 
ROOT
HETATM    1  C1  UNL     1     -32.224   8.970   0.420  1.00 20.00     0.157 C 
HETATM    2  N8  UNL     1     -31.761   7.986   0.864  1.00 20.00    -0.275 NA
HETATM    3  S9  UNL     1     -32.841  10.297  -0.209  1.00 20.00    -0.055 SA
ENDROOT
BRANCH   2   4
HETATM    4  C5  UNL     1     -31.999   7.785   2.296  1.00 20.00     0.155 C 
BRANCH   4   5
HETATM    5  C7  UNL     1     -33.318   7.025   2.530  1.00 20.00     0.005 C 
HETATM    6  C4  UNL     1     -33.249   5.651   1.847  1.00 20.00     0.012 C 
BRANCH   5   7
HETATM    7  C6  UNL     1     -33.707   6.914   4.034  1.00 20.00    -0.017 C 
HETATM    8  C2  UNL     1     -33.837   8.292   4.697  1.00 20.00     0.010 C 
HETATM    9  C3  UNL     1     -35.022   6.150   4.235  1.00 20.00     0.010 C 
ENDBRANCH   5   7
ENDBRANCH   4   5
ENDBRANCH   2   4
TORSDOF 3
