REMARK  1 active torsions:
REMARK  status: ('A' for Active; 'I' for Inactive)
REMARK       I    between atoms: C1_1  and  N8_8 
REMARK    1  A    between atoms: C5_5  and  N8_8 
ROOT
HETATM    1  C2  UNL     1     -32.231   8.236   0.244  1.00 20.00     0.036 C 
HETATM    2  C3  UNL     1     -31.753   9.622  -0.160  1.00 20.00     0.076 C 
HETATM    3  C4  UNL     1     -33.224   9.488   2.087  1.00 20.00     0.099 C 
HETATM    4  C5  UNL     1     -32.381   8.263   1.761  1.00 20.00     0.096 C 
HETATM    5  S10 UNL     1     -32.643  10.766   0.933  1.00 20.00    -0.167 SA
ENDROOT
BRANCH   4   6
HETATM    6  N8  UNL     1     -32.974   7.053   2.264  1.00 20.00    -0.351 N 
HETATM    7  C1  UNL     1     -33.763   7.038   3.426  1.00 20.00     0.215 C 
HETATM    8  C6  UNL     1     -34.855   6.001   3.507  1.00 20.00     0.117 C 
HETATM    9  O9  UNL     1     -33.605   7.821   4.366  1.00 20.00    -0.274 OA
HETATM   10  C7  UNL     1     -32.704   5.835   1.490  1.00 20.00     0.153 C 
ENDBRANCH   4   6
TORSDOF 1
