REMARK  3 active torsions:
REMARK  status: ('A' for Active; 'I' for Inactive)
REMARK    1  A    between atoms: C1_1  and  C8_8 
REMARK       I    between atoms: C1_1  and  N10_10 
REMARK    2  A    between atoms: C4_4  and  C9_9 
REMARK    3  A    between atoms: C9_9  and  N10_10 
ROOT
HETATM    1  C1  UNL     1     -33.877   7.006   3.512  1.00 20.00     0.219 C 
HETATM    2  C7  UNL     1     -33.184   5.898   1.377  1.00 20.00     0.152 C 
HETATM    3  N10 UNL     1     -33.081   6.967   2.363  1.00 20.00    -0.356 N 
HETATM    4  O11 UNL     1     -33.805   7.901   4.358  1.00 20.00    -0.273 OA
ENDROOT
BRANCH   3   5
HETATM    5  C9  UNL     1     -32.085   7.994   2.064  1.00 20.00     0.130 C 
BRANCH   5   6
HETATM    6  C4  UNL     1     -32.383   8.670   0.770  1.00 20.00     0.008 A 
HETATM    7  C2  UNL     1     -33.434   9.747   0.702  1.00 20.00     0.011 A 
HETATM    8  C3  UNL     1     -31.979  10.106   0.557  1.00 20.00    -0.013 A 
HETATM    9  C5  UNL     1     -31.444  10.545  -0.762  1.00 20.00     0.010 C 
ENDBRANCH   5   6
ENDBRANCH   3   5
BRANCH   1  10
HETATM   10  C8  UNL     1     -34.867   5.862   3.683  1.00 20.00     0.098 C 
HETATM   11  C6  UNL     1     -34.274   4.680   4.433  1.00 20.00     0.014 C 
ENDBRANCH   1  10
TORSDOF 3
