REMARK  1 active torsions:
REMARK  status: ('A' for Active; 'I' for Inactive)
REMARK    1  A    between atoms: C8_8  and  C9_9 
ROOT
HETATM    1  C1  UNL     1     -32.516   9.348   0.113  1.00 20.00     0.085 C 
HETATM    2  C2  UNL     1     -32.056   5.778   1.453  1.00 20.00     0.003 C 
HETATM    3  C3  UNL     1     -33.252   5.777   2.400  1.00 20.00     0.005 C 
HETATM    4  C6  UNL     1     -32.127   6.934   0.456  1.00 20.00     0.041 C 
HETATM    5  C7  UNL     1     -33.480   8.281   2.122  1.00 20.00     0.046 C 
HETATM    6  C9  UNL     1     -33.409   7.118   3.128  1.00 20.00    -0.008 C 
HETATM    7  C10 UNL     1     -32.304   8.304   1.130  1.00 20.00     0.125 C 
HETATM    8  N11 UNL     1     -32.682  10.171  -0.688  1.00 20.00    -0.195 NA
HETATM    9 CL12 UNL     1     -30.791   8.760   1.991  1.00 20.00    -0.103 Cl
ENDROOT
BRANCH   6  10
HETATM   10  C8  UNL     1     -34.628   7.105   4.016  1.00 20.00    -0.010 A 
HETATM   11  C4  UNL     1     -35.978   6.775   3.442  1.00 20.00     0.005 A 
HETATM   12  C5  UNL     1     -35.296   5.804   4.364  1.00 20.00     0.005 A 
ENDBRANCH   6  10
TORSDOF 1
