REMARK  1 active torsions:
REMARK  status: ('A' for Active; 'I' for Inactive)
REMARK    1  A    between atoms: C9_9  and  C10_10 
ROOT
HETATM    1  C1  UNL     1     -33.714   4.194   4.195  1.00 20.00     0.064 C 
HETATM    2  C2  UNL     1     -34.941   6.971   4.967  1.00 20.00     0.002 C 
HETATM    3  C3  UNL     1     -35.513   5.894   4.044  1.00 20.00     0.019 C 
HETATM    4  C4  UNL     1     -33.997   7.909   4.222  1.00 20.00     0.005 C 
HETATM    5  C7  UNL     1     -33.449   6.061   2.584  1.00 20.00     0.024 C 
HETATM    6  C8  UNL     1     -34.428   5.115   3.291  1.00 20.00     0.093 C 
HETATM    7  C10 UNL     1     -32.872   7.143   3.515  1.00 20.00    -0.009 C 
HETATM    8  N11 UNL     1     -33.152   3.469   4.906  1.00 20.00    -0.197 NA
ENDROOT
BRANCH   7   9
HETATM    9  C9  UNL     1     -31.981   8.087   2.749  1.00 20.00    -0.010 A 
HETATM   10  C5  UNL     1     -31.545   7.751   1.350  1.00 20.00     0.005 A 
HETATM   11  C6  UNL     1     -32.526   8.865   1.584  1.00 20.00     0.005 A 
ENDBRANCH   7   9
TORSDOF 1
