REMARK  1 active torsions:
REMARK  status: ('A' for Active; 'I' for Inactive)
REMARK    1  A    between atoms: C8_8  and  C9_9 
ROOT
HETATM    1  C1  UNL     1     -33.935   7.018   3.492  1.00 20.00     0.004 C 
HETATM    2  C2  UNL     1     -32.789   8.030   3.382  1.00 20.00     0.005 C 
HETATM    3  C5  UNL     1     -33.489   5.619   3.074  1.00 20.00     0.040 C 
HETATM    4  C6  UNL     1     -31.720   6.631   1.551  1.00 20.00     0.045 C 
HETATM    5  C7  UNL     1     -33.606   5.151   0.506  1.00 20.00     0.207 A 
HETATM    6  C9  UNL     1     -32.127   8.047   1.992  1.00 20.00    -0.008 C 
HETATM    7  C10 UNL     1     -32.857   5.664   1.715  1.00 20.00     0.083 A 
HETATM    8  O11 UNL     1     -32.597   4.367   1.157  1.00 20.00    -0.375 OA
ENDROOT
BRANCH   6   9
HETATM    9  C8  UNL     1     -33.001   8.723   0.962  1.00 20.00    -0.010 A 
HETATM   10  C3  UNL     1     -32.972  10.218   0.808  1.00 20.00     0.005 A 
HETATM   11  C4  UNL     1     -32.387   9.341  -0.264  1.00 20.00     0.005 A 
ENDBRANCH   6   9
TORSDOF 1
