REMARK  1 active torsions:
REMARK  status: ('A' for Active; 'I' for Inactive)
REMARK    1  A    between atoms: C8_8  and  C9_9 
ROOT
HETATM    1  C1  UNL     1     -33.912   7.209   3.228  1.00 20.00     0.004 C 
HETATM    2  C2  UNL     1     -32.864   8.325   3.237  1.00 20.00     0.005 C 
HETATM    3  C5  UNL     1     -33.292   5.862   2.868  1.00 20.00     0.040 C 
HETATM    4  C6  UNL     1     -31.494   7.063   1.508  1.00 20.00     0.045 C 
HETATM    5  C7  UNL     1     -32.328   4.723   0.742  1.00 20.00     0.207 A 
HETATM    6  C9  UNL     1     -32.080   8.424   1.917  1.00 20.00    -0.008 C 
HETATM    7  C10 UNL     1     -32.508   5.957   1.594  1.00 20.00     0.083 A 
HETATM    8  O11 UNL     1     -33.274   5.748   0.401  1.00 20.00    -0.375 OA
ENDROOT
BRANCH   6   9
HETATM    9  C8  UNL     1     -32.913   9.033   0.814  1.00 20.00    -0.010 A 
HETATM   10  C3  UNL     1     -33.008  10.527   0.673  1.00 20.00     0.005 A 
HETATM   11  C4  UNL     1     -32.247   9.722  -0.344  1.00 20.00     0.005 A 
ENDBRANCH   6   9
TORSDOF 1
