REMARK  2 active torsions:
REMARK  status: ('A' for Active; 'I' for Inactive)
REMARK    1  A    between atoms: C3_3  and  C6_6 
REMARK    2  A    between atoms: C3_3  and  O8_8 
ROOT
HETATM    1  C1  UNL     1     -31.663   4.890   1.221  1.00 20.00     0.013 C 
HETATM    2  C2  UNL     1     -32.272   5.857   1.589  1.00 20.00    -0.103 C 
HETATM    3  C4  UNL     1     -32.091   8.241   2.181  1.00 20.00     0.034 C 
HETATM    4  C6  UNL     1     -33.025   7.043   2.037  1.00 20.00     0.159 C 
ENDROOT
BRANCH   4   5
HETATM    5  C3  UNL     1     -33.731   6.775   3.355  1.00 20.00     0.273 C 
HETATM    6  O7  UNL     1     -33.568   7.419   4.384  1.00 20.00    -0.264 OA
BRANCH   5   7
HETATM    7  O8  UNL     1     -34.575   5.710   3.210  1.00 20.00    -0.326 OA
HETATM    8  C5  UNL     1     -35.315   5.345   4.380  1.00 20.00     0.213 C 
ENDBRANCH   5   7
ENDBRANCH   4   5
TORSDOF 2
