REMARK  1 active torsions:
REMARK  status: ('A' for Active; 'I' for Inactive)
REMARK    1  A    between atoms: C1_1  and  C2_2 
ROOT
HETATM    1  C1  UNL     1     -33.894   6.801   3.211  1.00 20.00     0.385 C 
HETATM    2  F3  UNL     1     -33.475   7.622   4.205  1.00 20.00    -0.212 F 
HETATM    3  F4  UNL     1     -34.255   5.630   3.794  1.00 20.00    -0.212 F 
ENDROOT
BRANCH   1   4
HETATM    4  C2  UNL     1     -32.782   6.556   2.210  1.00 20.00     0.242 C 
HETATM    5 CL5  UNL     1     -33.339   5.471   0.917  1.00 20.00    -0.102 Cl
HETATM    6 CL6  UNL     1     -32.218   8.091   1.506  1.00 20.00    -0.102 Cl
ENDBRANCH   1   4
TORSDOF 1
