REMARK  1 active torsions:
REMARK  status: ('A' for Active; 'I' for Inactive)
REMARK    1  A    between atoms: C1_1  and  C2_2 
ROOT
HETATM    1  C1  UNL     1     -34.146   6.810   3.129  1.00 20.00     0.401 C 
HETATM    2  F3  UNL     1     -34.192   7.791   4.063  1.00 20.00    -0.210 F 
HETATM    3  F4  UNL     1     -34.369   5.641   3.780  1.00 20.00    -0.210 F 
ENDROOT
BRANCH   1   4
HETATM    4  C2  UNL     1     -32.781   6.768   2.487  1.00 20.00     0.330 C 
HETATM    5  F5  UNL     1     -32.756   5.754   1.581  1.00 20.00    -0.227 F 
HETATM    6 CL6  UNL     1     -32.419   8.292   1.658  1.00 20.00    -0.084 Cl
ENDBRANCH   1   4
TORSDOF 1
