REMARK  0 active torsions:
REMARK  status: ('A' for Active; 'I' for Inactive)
ROOT
HETATM    1  C1  UNL     1     -33.803   6.205   3.253  1.00 20.00     0.127 C 
HETATM    2  C2  UNL     1     -34.072   7.606   3.756  1.00 20.00     0.079 C 
HETATM    3  C3  UNL     1     -33.251   6.087   1.850  1.00 20.00     0.079 C 
HETATM    4  C4  UNL     1     -32.848   8.488   3.549  1.00 20.00     0.017 C 
HETATM    5  C5  UNL     1     -32.051   7.007   1.664  1.00 20.00     0.017 C 
HETATM    6  C6  UNL     1     -31.994   9.788   0.443  1.00 20.00     0.002 C 
HETATM    7  C7  UNL     1     -31.267   9.471   1.763  1.00 20.00     0.009 C 
HETATM    8  C8  UNL     1     -33.286   9.254   1.087  1.00 20.00     0.009 C 
HETATM    9  C9  UNL     1     -32.397   8.445   2.085  1.00 20.00    -0.040 C 
HETATM   10  O10 UNL     1     -34.114   5.213   3.910  1.00 20.00    -0.298 OA
ENDROOT
TORSDOF 0
