REMARK  0 active torsions:
REMARK  status: ('A' for Active; 'I' for Inactive)
ROOT
HETATM    1  C1  UNL     1     -32.905   8.146   2.783  1.00 20.00     0.005 C 
HETATM    2  C2  UNL     1     -32.112   7.308   1.782  1.00 20.00     0.026 C 
HETATM    3  C3  UNL     1     -33.335   7.301   3.981  1.00 20.00     0.042 C 
HETATM    4  C4  UNL     1     -34.659   5.184   4.644  1.00 20.00     0.309 C 
HETATM    5  C5  UNL     1     -35.578   6.254   3.111  1.00 20.00     0.309 C 
HETATM    6  C6  UNL     1     -32.894   6.065   1.380  1.00 20.00     0.169 C 
HETATM    7  C7  UNL     1     -34.090   6.058   3.500  1.00 20.00     0.113 C 
HETATM    8  N8  UNL     1     -35.973   5.829   4.467  1.00 20.00     0.089 N 
HETATM    9  O9  UNL     1     -33.279   5.332   2.542  1.00 20.00    -0.377 OA
HETATM   10  H22 UNL     1     -36.746   5.162   4.464  1.00 20.00     0.316 HD
ENDROOT
TORSDOF 0
