REMARK  0 active torsions:
REMARK  status: ('A' for Active; 'I' for Inactive)
ROOT
HETATM    1  C1  UNL     1     -32.644   4.014   2.414  1.00 20.00     0.013 C 
HETATM    2  C2  UNL     1     -32.191   5.173   1.482  1.00 20.00     0.080 C 
HETATM    3  C3  UNL     1     -34.563   4.158   4.274  1.00 20.00     0.274 C 
HETATM    4  C4  UNL     1     -35.061   6.430   3.632  1.00 20.00     0.280 C 
HETATM    5  C5  UNL     1     -33.982   4.499   2.929  1.00 20.00     0.025 C 
HETATM    6  C6  UNL     1     -33.730   5.980   3.098  1.00 20.00     0.092 C 
HETATM    7  C7  UNL     1     -33.172   6.330   1.746  1.00 20.00     0.249 C 
HETATM    8  N8  UNL     1     -35.402   5.345   4.592  1.00 20.00     0.084 N 
HETATM    9  F9  UNL     1     -32.568   7.529   1.729  1.00 20.00    -0.206 F 
HETATM   10  F10 UNL     1     -34.143   6.335   0.805  1.00 20.00    -0.206 F 
HETATM   11  H21 UNL     1     -36.388   5.109   4.486  1.00 20.00     0.315 HD
ENDROOT
TORSDOF 0
