REMARK  1 active torsions:
REMARK  status: ('A' for Active; 'I' for Inactive)
REMARK    1  A    between atoms: C7_7  and  C10_10 
ROOT
HETATM    1  C1  UNL     1     -32.330   7.768   1.798  1.00 20.00     0.127 C 
HETATM    2  C2  UNL     1     -32.300   8.070   3.281  1.00 20.00     0.078 C 
HETATM    3  C3  UNL     1     -32.453   6.323   1.344  1.00 20.00     0.079 C 
HETATM    4  C4  UNL     1     -33.643   7.853   3.968  1.00 20.00     0.008 C 
HETATM    5  C5  UNL     1     -32.566   5.307   2.476  1.00 20.00     0.012 C 
HETATM    6  C6  UNL     1     -34.530   6.748   3.394  1.00 20.00     0.005 C 
HETATM    7  C7  UNL     1     -33.895   5.355   3.255  1.00 20.00    -0.011 C 
HETATM    8  O11 UNL     1     -32.250   8.676   0.969  1.00 20.00    -0.298 OA
ENDROOT
BRANCH   7   9
HETATM    9  C10 UNL     1     -33.724   4.683   4.620  1.00 20.00    -0.019 C 
HETATM   10  C8  UNL     1     -35.024   4.756   5.414  1.00 20.00     0.010 C 
HETATM   11  C9  UNL     1     -33.275   3.237   4.447  1.00 20.00     0.010 C 
ENDBRANCH   7   9
TORSDOF 1
