REMARK  3 active torsions:
REMARK  status: ('A' for Active; 'I' for Inactive)
REMARK    1  A    between atoms: C1_1  and  C3_3 
REMARK       I    between atoms: C3_3  and  N10_10 
REMARK    2  A    between atoms: C8_8  and  C9_9 
REMARK    3  A    between atoms: C8_8  and  N10_10 
ROOT
HETATM    1  C3  UNL     1     -34.735   6.011   3.503  1.00 20.00     0.240 C 
HETATM    2  N10 UNL     1     -33.613   6.586   2.922  1.00 20.00    -0.357 N 
HETATM    3  O11 UNL     1     -35.892   6.379   3.331  1.00 20.00    -0.269 OA
HETATM    4  H28 UNL     1     -32.689   6.222   3.151  1.00 20.00     0.162 HD
ENDROOT
BRANCH   2   5
HETATM    5  C8  UNL     1     -33.682   7.710   2.027  1.00 20.00     0.131 C 
BRANCH   5   6
HETATM    6  C9  UNL     1     -32.311   8.186   1.498  1.00 20.00    -0.035 C 
HETATM    7  C5  UNL     1     -32.478   9.399   0.566  1.00 20.00     0.016 C 
HETATM    8  C6  UNL     1     -31.372   8.558   2.658  1.00 20.00     0.016 C 
HETATM    9  C7  UNL     1     -31.674   7.034   0.700  1.00 20.00     0.016 C 
ENDBRANCH   5   6
ENDBRANCH   2   5
BRANCH   1  10
HETATM   10  C1  UNL     1     -34.382   4.868   4.389  1.00 20.00     0.070 C 
HETATM   11  C2  UNL     1     -33.743   3.800   3.893  1.00 20.00    -0.026 C 
HETATM   12  C4  UNL     1     -33.356   2.617   4.719  1.00 20.00     0.036 C 
ENDBRANCH   1  10
TORSDOF 3
