REMARK  2 active torsions:
REMARK  status: ('A' for Active; 'I' for Inactive)
REMARK    1  A    between atoms: C2_2  and  C9_9 
REMARK    2  A    between atoms: C6_6  and  C9_9 
ROOT
HETATM    1  C3  UNL     1     -33.997   5.305   3.233  1.00 20.00     0.002 C 
HETATM    2  C4  UNL     1     -33.064   5.780   2.115  1.00 20.00     0.006 C 
HETATM    3  C5  UNL     1     -34.682   6.559   3.779  1.00 20.00     0.020 C 
HETATM    4  C6  UNL     1     -33.306   7.287   1.990  1.00 20.00     0.008 C 
HETATM    5  C7  UNL     1     -33.759   7.712   3.392  1.00 20.00     0.086 C 
HETATM    6 CL10 UNL     1     -32.416   7.833   4.569  1.00 20.00    -0.125 Cl
ENDROOT
BRANCH   4   7
HETATM    7  C9  UNL     1     -32.142   8.040   1.424  1.00 20.00     0.039 C 
BRANCH   7   8
HETATM    8  C2  UNL     1     -32.536   9.379   0.848  1.00 20.00    -0.093 C 
HETATM    9  C1  UNL     1     -32.300   9.686  -0.437  1.00 20.00     0.014 C 
HETATM   10  C8  UNL     1     -33.171  10.366   1.785  1.00 20.00     0.042 C 
ENDBRANCH   7   8
ENDBRANCH   4   7
TORSDOF 2
