REMARK  3 active torsions:
REMARK  status: ('A' for Active; 'I' for Inactive)
REMARK    1  A    between atoms: C2_2  and  C6_6 
REMARK    2  A    between atoms: C6_6  and  C7_7 
REMARK    3  A    between atoms: C7_7  and  C8_8 
ROOT
HETATM    1  C4  UNL     1     -32.505   5.343   2.021  1.00 20.00     0.011 C 
HETATM    2  C7  UNL     1     -32.994   6.800   2.021  1.00 20.00    -0.001 C 
ENDROOT
BRANCH   2   3
HETATM    3  C6  UNL     1     -31.875   7.781   1.594  1.00 20.00     0.038 C 
BRANCH   3   4
HETATM    4  C2  UNL     1     -32.370   9.093   1.023  1.00 20.00    -0.093 C 
HETATM    5  C1  UNL     1     -32.020   9.500  -0.208  1.00 20.00     0.014 C 
HETATM    6  C3  UNL     1     -33.305   9.902   1.876  1.00 20.00     0.042 C 
ENDBRANCH   3   4
ENDBRANCH   2   3
BRANCH   2   7
HETATM    7  C8  UNL     1     -33.668   7.172   3.364  1.00 20.00     0.057 C 
HETATM    8  C5  UNL     1     -34.521   6.056   3.956  1.00 20.00     0.022 C 
HETATM    9 BR9  UNL     1     -32.371   7.734   4.723  1.00 20.00    -0.091 Br
ENDBRANCH   2   7
TORSDOF 3
