REMARK  2 active torsions:
REMARK  status: ('A' for Active; 'I' for Inactive)
REMARK    1  A    between atoms: C5_5  and  C6_6 
REMARK    2  A    between atoms: C6_6  and  C7_7 
ROOT
HETATM    1  C1  UNL     1     -32.892  10.269   0.778  1.00 20.00     0.012 C 
HETATM    2  C2  UNL     1     -32.422   9.213   1.105  1.00 20.00    -0.117 C 
HETATM    3  C5  UNL     1     -31.840   7.921   1.503  1.00 20.00     0.098 C 
ENDROOT
BRANCH   3   4
HETATM    4  C6  UNL     1     -32.917   6.913   1.965  1.00 20.00     0.011 C 
HETATM    5  C3  UNL     1     -32.414   5.469   1.818  1.00 20.00     0.012 C 
BRANCH   4   6
HETATM    6  C7  UNL     1     -33.405   7.257   3.397  1.00 20.00     0.082 C 
HETATM    7  C4  UNL     1     -33.894   8.696   3.540  1.00 20.00     0.027 C 
HETATM    8 CL8  UNL     1     -34.696   6.147   3.957  1.00 20.00    -0.125 Cl
ENDBRANCH   4   6
ENDBRANCH   3   4
TORSDOF 2
