REMARK  4 active torsions:
REMARK  status: ('A' for Active; 'I' for Inactive)
REMARK    1  A    between atoms: C4_4  and  C8_8 
REMARK    2  A    between atoms: C8_8  and  C11_11 
REMARK    3  A    between atoms: C9_9  and  C10_10 
REMARK    4  A    between atoms: C10_10  and  C11_11 
ROOT
HETATM    1  C1  UNL     1     -31.812   8.565  -0.315  1.00 20.00     0.002 C 
HETATM    2  C2  UNL     1     -31.557   7.149   0.209  1.00 20.00     0.006 C 
HETATM    3  C3  UNL     1     -32.598   9.297   0.771  1.00 20.00     0.020 C 
HETATM    4  C4  UNL     1     -32.304   7.041   1.545  1.00 20.00     0.004 C 
HETATM    5  C5  UNL     1     -32.373   8.488   2.044  1.00 20.00     0.086 C 
HETATM    6 CL12 UNL     1     -30.825   8.965   2.808  1.00 20.00    -0.125 Cl
ENDROOT
BRANCH   4   7
HETATM    7  C8  UNL     1     -33.696   6.437   1.353  1.00 20.00     0.010 C 
BRANCH   7   8
HETATM    8  C11 UNL     1     -34.259   5.765   2.619  1.00 20.00    -0.018 C 
HETATM    9  C7  UNL     1     -34.464   6.816   3.715  1.00 20.00     0.010 C 
BRANCH   8  10
HETATM   10  C10 UNL     1     -33.427   4.572   3.135  1.00 20.00     0.004 C 
BRANCH  10  11
HETATM   11  C9  UNL     1     -34.070   3.769   4.268  1.00 20.00    -0.004 C 
HETATM   12  C6  UNL     1     -33.211   2.573   4.653  1.00 20.00     0.005 C 
ENDBRANCH  10  11
ENDBRANCH   8  10
ENDBRANCH   7   8
ENDBRANCH   4   7
TORSDOF 4
