REMARK  6 active torsions:
REMARK  status: ('A' for Active; 'I' for Inactive)
REMARK    1  A    between atoms: C4_4  and  C6_6 
REMARK    2  A    between atoms: C5_5  and  C7_7 
REMARK    3  A    between atoms: C6_6  and  C8_8 
REMARK    4  A    between atoms: C7_7  and  C9_9 
REMARK    5  A    between atoms: C8_8  and  C9_9 
REMARK    6  A    between atoms: C9_9  and  O10_10 
ROOT
HETATM    1  C1  UNL     1     -33.208  10.326   0.025  1.00 20.00     0.012 C 
HETATM    2  C2  UNL     1     -32.457   9.448   0.350  1.00 20.00    -0.117 C 
HETATM    3  C4  UNL     1     -31.534   8.374   0.745  1.00 20.00     0.093 C 
ENDROOT
BRANCH   3   4
HETATM    4  C6  UNL     1     -32.044   7.585   1.953  1.00 20.00     0.014 C 
BRANCH   4   5
HETATM    5  C8  UNL     1     -32.247   8.465   3.196  1.00 20.00     0.032 C 
BRANCH   5   6
HETATM    6  C9  UNL     1     -32.804   7.667   4.383  1.00 20.00     0.118 C 
BRANCH   6   7
HETATM    7  C7  UNL     1     -34.327   7.489   4.339  1.00 20.00     0.031 C 
BRANCH   7   8
HETATM    8  C5  UNL     1     -34.785   6.329   3.455  1.00 20.00    -0.002 C 
HETATM    9  C3  UNL     1     -34.186   5.009   3.920  1.00 20.00     0.005 C 
ENDBRANCH   7   8
ENDBRANCH   6   7
BRANCH   6  10
HETATM   10  O10 UNL     1     -32.477   8.342   5.600  1.00 20.00    -0.396 OA
HETATM   11  H26 UNL     1     -31.513   8.442   5.605  1.00 20.00     0.210 HD
ENDBRANCH   6  10
ENDBRANCH   5   6
ENDBRANCH   4   5
ENDBRANCH   3   4
TORSDOF 6
