REMARK  3 active torsions:
REMARK  status: ('A' for Active; 'I' for Inactive)
REMARK    1  A    between atoms: C6_6  and  C9_9 
REMARK    2  A    between atoms: C7_7  and  O10_10 
REMARK    3  A    between atoms: C8_8  and  C9_9 
ROOT
HETATM    1  C1  UNL     1     -32.852   9.957  -0.073  1.00 20.00     0.012 C 
HETATM    2  C2  UNL     1     -32.085   9.221   0.484  1.00 20.00    -0.117 C 
HETATM    3  C8  UNL     1     -31.143   8.323   1.166  1.00 20.00     0.093 C 
ENDROOT
BRANCH   3   4
HETATM    4  C9  UNL     1     -31.872   7.109   1.715  1.00 20.00     0.019 C 
BRANCH   4   5
HETATM    5  C6  UNL     1     -32.943   7.520   2.713  1.00 20.00     0.015 C 
HETATM    6  C4  UNL     1     -33.981   6.431   2.964  1.00 20.00     0.007 C 
HETATM    7  C3  UNL     1     -34.605   6.788   4.314  1.00 20.00     0.003 C 
HETATM    8  C5  UNL     1     -33.651   7.780   4.980  1.00 20.00     0.032 C 
HETATM    9  C7  UNL     1     -32.396   7.780   4.114  1.00 20.00     0.122 C 
BRANCH   9  10
HETATM   10  O10 UNL     1     -31.720   9.021   4.179  1.00 20.00    -0.395 OA
HETATM   11  H24 UNL     1     -31.476   9.165   5.109  1.00 20.00     0.210 HD
ENDBRANCH   9  10
ENDBRANCH   4   5
ENDBRANCH   3   4
TORSDOF 3
