REMARK  2 active torsions:
REMARK  status: ('A' for Active; 'I' for Inactive)
REMARK    1  A    between atoms: C7_7  and  C9_9 
REMARK    2  A    between atoms: C8_8  and  C9_9 
ROOT
HETATM    1  C1  UNL     1     -32.978   9.948  -0.180  1.00 20.00     0.012 C 
HETATM    2  C2  UNL     1     -32.226   9.170   0.340  1.00 20.00    -0.117 C 
HETATM    3  C8  UNL     1     -31.304   8.218   0.973  1.00 20.00     0.093 C 
ENDROOT
BRANCH   3   4
HETATM    4  C9  UNL     1     -31.705   7.963   2.417  1.00 20.00     0.024 C 
BRANCH   4   5
HETATM    5  C7  UNL     1     -33.107   7.394   2.505  1.00 20.00     0.056 C 
HETATM    6  C3  UNL     1     -33.155   5.899   2.260  1.00 20.00     0.131 C 
HETATM    7  C4  UNL     1     -34.034   5.192   3.260  1.00 20.00     0.079 C 
HETATM    8  O10 UNL     1     -32.554   5.325   1.361  1.00 20.00    -0.298 OA
HETATM    9  C5  UNL     1     -34.725   6.358   3.956  1.00 20.00     0.008 C 
HETATM   10  C6  UNL     1     -33.703   7.486   3.911  1.00 20.00     0.013 C 
ENDBRANCH   4   5
ENDBRANCH   3   4
TORSDOF 2
