REMARK  0 active torsions:
REMARK  status: ('A' for Active; 'I' for Inactive)
ROOT
HETATM    1  C1  UNL     1     -32.291   9.382   0.355  1.00 20.00     0.101 C 
HETATM    2  C2  UNL     1     -32.149   5.710   1.439  1.00 20.00     0.005 C 
HETATM    3  C3  UNL     1     -33.381   5.792   2.331  1.00 20.00     0.030 C 
HETATM    4  C4  UNL     1     -32.055   6.943   0.541  1.00 20.00     0.057 C 
HETATM    5  C5  UNL     1     -33.434   7.116   3.087  1.00 20.00     0.272 C 
HETATM    6  C6  UNL     1     -32.161   8.270   1.327  1.00 20.00     0.240 C 
HETATM    7  C7  UNL     1     -30.892   8.533   2.160  1.00 20.00     0.066 C 
HETATM    8  N8  UNL     1     -32.393  10.252  -0.405  1.00 20.00    -0.195 NA
HETATM    9  N9  UNL     1     -33.361   8.269   2.185  1.00 20.00     0.106 N 
HETATM   10  H21 UNL     1     -34.205   8.316   1.613  1.00 20.00     0.318 HD
ENDROOT
TORSDOF 0
