REMARK  4 active torsions:
REMARK  status: ('A' for Active; 'I' for Inactive)
REMARK    1  A    between atoms: C3_3  and  C7_7 
REMARK    2  A    between atoms: C3_3  and  C9_9 
REMARK    3  A    between atoms: C6_6  and  C8_8 
REMARK    4  A    between atoms: C7_7  and  C8_8 
ROOT
HETATM    1  C1  UNL     1     -32.497  10.359  -0.131  1.00 20.00     0.012 C 
HETATM    2  C2  UNL     1     -32.073   9.292   0.217  1.00 20.00    -0.117 C 
HETATM    3  C6  UNL     1     -31.553   7.984   0.640  1.00 20.00     0.093 C 
ENDROOT
BRANCH   3   4
HETATM    4  C8  UNL     1     -32.002   7.645   2.061  1.00 20.00     0.019 C 
BRANCH   4   5
HETATM    5  C7  UNL     1     -33.523   7.551   2.156  1.00 20.00     0.079 C 
BRANCH   5   6
HETATM    6  C3  UNL     1     -33.999   7.170   3.551  1.00 20.00     0.130 C 
HETATM    7  O10 UNL     1     -33.746   7.860   4.539  1.00 20.00    -0.298 OA
BRANCH   6   8
HETATM    8  C9  UNL     1     -34.784   5.865   3.663  1.00 20.00     0.047 C 
HETATM    9  C4  UNL     1     -35.826   5.950   4.775  1.00 20.00     0.017 C 
HETATM   10  C5  UNL     1     -33.825   4.706   3.901  1.00 20.00     0.017 C 
ENDBRANCH   6   8
ENDBRANCH   5   6
ENDBRANCH   4   5
ENDBRANCH   3   4
TORSDOF 4
