REMARK  3 active torsions:
REMARK  status: ('A' for Active; 'I' for Inactive)
REMARK    1  A    between atoms: C1_1  and  C5_5 
REMARK    2  A    between atoms: C1_1  and  C8_8 
REMARK    3  A    between atoms: C8_8  and  C9_9 
ROOT
HETATM    1  C1  UNL     1     -32.789   7.324   2.031  1.00 20.00     0.133 C 
HETATM    2  O10 UNL     1     -31.812   6.665   1.679  1.00 20.00    -0.297 OA
ENDROOT
BRANCH   1   3
HETATM    3  C5  UNL     1     -33.647   6.875   3.163  1.00 20.00     0.081 C 
HETATM    4  C2  UNL     1     -35.114   7.214   2.990  1.00 20.00     0.040 C 
HETATM    5  C3  UNL     1     -35.772   6.242   3.944  1.00 20.00     0.168 C 
HETATM    6  O11 UNL     1     -34.974   5.052   3.925  1.00 20.00    -0.390 OA
HETATM    7  C4  UNL     1     -33.702   5.363   3.334  1.00 20.00     0.179 C 
ENDBRANCH   1   3
BRANCH   1   8
HETATM    8  C8  UNL     1     -33.222   8.602   1.329  1.00 20.00     0.082 C 
BRANCH   8   9
HETATM    9  C9  UNL     1     -32.284   9.034   0.192  1.00 20.00    -0.016 C 
HETATM   10  C6  UNL     1     -30.864   9.290   0.705  1.00 20.00     0.010 C 
HETATM   11  C7  UNL     1     -32.824  10.297  -0.481  1.00 20.00     0.010 C 
ENDBRANCH   8   9
ENDBRANCH   1   8
TORSDOF 3
