REMARK  4 active torsions:
REMARK  status: ('A' for Active; 'I' for Inactive)
REMARK    1  A    between atoms: C5_5  and  C9_9 
REMARK    2  A    between atoms: C7_7  and  C8_8 
REMARK    3  A    between atoms: C8_8  and  C9_9 
REMARK    4  A    between atoms: C9_9  and  O10_10 
ROOT
HETATM    1  C1  UNL     1     -34.213   5.883   3.632  1.00 20.00     0.012 C 
HETATM    2  C2  UNL     1     -33.912   7.045   3.632  1.00 20.00    -0.117 C 
HETATM    3  C7  UNL     1     -33.548   8.471   3.635  1.00 20.00     0.096 C 
ENDROOT
BRANCH   3   4
HETATM    4  C8  UNL     1     -32.159   8.682   3.016  1.00 20.00     0.050 C 
BRANCH   4   5
HETATM    5  C9  UNL     1     -32.024   8.189   1.559  1.00 20.00     0.059 C 
HETATM    6  C6  UNL     1     -30.622   8.363   1.029  1.00 20.00     0.046 C 
BRANCH   5   7
HETATM    7  C5  UNL     1     -33.019   8.949   0.672  1.00 20.00     0.019 A 
HETATM    8  C3  UNL     1     -32.968  10.449   0.589  1.00 20.00     0.008 A 
HETATM    9  C4  UNL     1     -32.550   9.617  -0.591  1.00 20.00     0.008 A 
ENDBRANCH   5   7
BRANCH   5  10
HETATM   10  O10 UNL     1     -32.370   6.802   1.516  1.00 20.00    -0.390 OA
HETATM   11  H24 UNL     1     -32.301   6.534   0.588  1.00 20.00     0.210 HD
ENDBRANCH   5  10
ENDBRANCH   4   5
ENDBRANCH   3   4
TORSDOF 4
