REMARK  3 active torsions:
REMARK  status: ('A' for Active; 'I' for Inactive)
REMARK    1  A    between atoms: C4_4  and  C9_9 
REMARK    2  A    between atoms: C5_5  and  C10_10 
REMARK    3  A    between atoms: C9_9  and  C11_11 
ROOT
HETATM    1  C1  UNL     1     -34.883   6.639   3.587  1.00 20.00     0.006 C 
HETATM    2  C2  UNL     1     -33.895   7.612   4.225  1.00 20.00     0.021 C 
HETATM    3  C3  UNL     1     -33.494   6.603   1.481  1.00 20.00     0.010 C 
HETATM    4  C4  UNL     1     -34.238   5.750   2.518  1.00 20.00    -0.014 C 
HETATM    5  C5  UNL     1     -32.486   7.589   2.101  1.00 20.00     0.004 C 
HETATM    6  C6  UNL     1     -33.174   8.458   3.173  1.00 20.00     0.086 C 
HETATM    7 CL12 UNL     1     -31.994   9.520   4.006  1.00 20.00    -0.125 Cl
ENDROOT
BRANCH   4   8
HETATM    8  C9  UNL     1     -33.328   4.685   3.135  1.00 20.00     0.004 C 
BRANCH   8   9
HETATM    9  C11 UNL     1     -34.099   3.796   4.105  1.00 20.00    -0.004 C 
HETATM   10  C8  UNL     1     -33.202   2.722   4.698  1.00 20.00     0.005 C 
ENDBRANCH   8   9
ENDBRANCH   4   8
BRANCH   5  11
HETATM   11  C10 UNL     1     -31.856   8.431   0.985  1.00 20.00     0.001 C 
HETATM   12  C7  UNL     1     -32.875   9.273   0.296  1.00 20.00     0.005 C 
ENDBRANCH   5  11
TORSDOF 3
