REMARK  2 active torsions:
REMARK  status: ('A' for Active; 'I' for Inactive)
REMARK    1  A    between atoms: C7_7  and  C9_9 
REMARK    2  A    between atoms: C8_8  and  C9_9 
ROOT
HETATM    1  C1  UNL     1     -32.967   3.123   5.106  1.00 20.00     0.012 C 
HETATM    2  C2  UNL     1     -33.809   3.812   4.598  1.00 20.00    -0.117 C 
HETATM    3  C8  UNL     1     -34.842   4.655   3.982  1.00 20.00     0.093 C 
ENDROOT
BRANCH   3   4
HETATM    4  C9  UNL     1     -34.344   5.237   2.667  1.00 20.00     0.024 C 
BRANCH   4   5
HETATM    5  C7  UNL     1     -33.112   6.094   2.879  1.00 20.00     0.056 C 
HETATM    6  C3  UNL     1     -33.435   7.469   3.427  1.00 20.00     0.131 C 
HETATM    7  C4  UNL     1     -32.670   8.556   2.715  1.00 20.00     0.079 C 
HETATM    8  O10 UNL     1     -34.224   7.683   4.340  1.00 20.00    -0.298 OA
HETATM    9  C5  UNL     1     -31.672   7.751   1.891  1.00 20.00     0.008 C 
HETATM   10  C6  UNL     1     -32.402   6.453   1.572  1.00 20.00     0.013 C 
ENDBRANCH   4   5
ENDBRANCH   3   4
TORSDOF 2
