REMARK  0 active torsions:
REMARK  status: ('A' for Active; 'I' for Inactive)
ROOT
HETATM    1  C1  UNL     1     -33.362   8.957   4.670  1.00 20.00     0.002 A 
HETATM    2  C2  UNL     1     -32.545   9.199   3.564  1.00 20.00     0.009 A 
HETATM    3  C3  UNL     1     -34.104   7.769   4.767  1.00 20.00     0.019 A 
HETATM    4  C4  UNL     1     -32.482   8.235   2.570  1.00 20.00    -0.032 A 
HETATM    5  C5  UNL     1     -33.218   7.047   2.671  1.00 20.00    -0.033 A 
HETATM    6  C6  UNL     1     -34.040   6.805   3.759  1.00 20.00     0.017 A 
HETATM    7  C7  UNL     1     -33.011   6.186   1.464  1.00 20.00     0.042 C 
HETATM    8  C8  UNL     1     -31.717   6.789   0.893  1.00 20.00     0.030 C 
HETATM    9  C9  UNL     1     -31.707   8.276   1.289  1.00 20.00     0.116 C 
HETATM   10 CL10 UNL     1     -32.558   9.272   0.089  1.00 20.00    -0.120 Cl
HETATM   11 BR11 UNL     1     -35.072   5.231   3.911  1.00 20.00    -0.051 Br
ENDROOT
TORSDOF 0
