REMARK  2 active torsions:
REMARK  status: ('A' for Active; 'I' for Inactive)
REMARK    1  A    between atoms: C1_1  and  C6_6 
REMARK    2  A    between atoms: C1_1  and  C8_8 
ROOT
HETATM    1  C2  UNL     1     -32.581   8.675   3.032  1.00 20.00     0.027 C 
HETATM    2  C3  UNL     1     -33.561   7.683   3.651  1.00 20.00     0.016 C 
HETATM    3  C4  UNL     1     -32.200   8.247   1.621  1.00 20.00     0.167 C 
HETATM    4  C5  UNL     1     -32.621   5.962   2.082  1.00 20.00     0.179 C 
HETATM    5  C6  UNL     1     -33.031   6.256   3.522  1.00 20.00     0.079 C 
HETATM    6  O10 UNL     1     -31.670   6.921   1.621  1.00 20.00    -0.390 OA
ENDROOT
BRANCH   5   7
HETATM    7  C1  UNL     1     -34.076   5.286   3.974  1.00 20.00     0.132 C 
HETATM    8  O9  UNL     1     -35.181   5.674   4.351  1.00 20.00    -0.298 OA
BRANCH   7   9
HETATM    9  C8  UNL     1     -33.688   3.819   3.935  1.00 20.00     0.074 C 
HETATM   10  C7  UNL     1     -33.031   3.355   5.223  1.00 20.00     0.013 C 
ENDBRANCH   7   9
ENDBRANCH   5   7
TORSDOF 2
