REMARK  2 active torsions:
REMARK  status: ('A' for Active; 'I' for Inactive)
REMARK    1  A    between atoms: C5_5  and  N8_8 
REMARK    2  A    between atoms: C6_6  and  N8_8 
ROOT
HETATM    1  N8  UNL     1     -32.403   8.059   2.874  1.00 20.00     0.097 N 
HETATM    2  H22 UNL     1     -31.834   8.727   3.388  1.00 20.00     0.317 HD
ENDROOT
BRANCH   1   3
HETATM    3  C5  UNL     1     -31.606   7.514   1.771  1.00 20.00     0.225 A 
HETATM    4  C1  UNL     1     -32.280   6.864   0.591  1.00 20.00     0.042 A 
HETATM    5  C4  UNL     1     -31.556   8.170   0.412  1.00 20.00     0.016 A 
HETATM    6  C7  UNL     1     -32.317   9.411   0.095  1.00 20.00     0.012 C 
ENDBRANCH   1   3
BRANCH   1   7
HETATM    7  C6  UNL     1     -32.833   6.995   3.767  1.00 20.00     0.268 C 
HETATM    8  C2  UNL     1     -34.048   6.302   3.152  1.00 20.00     0.205 C 
HETATM    9  O9  UNL     1     -34.955   7.065   3.988  1.00 20.00    -0.387 OA
HETATM   10  C3  UNL     1     -33.839   7.570   4.764  1.00 20.00     0.205 C 
ENDBRANCH   1   7
TORSDOF 2
