REMARK  2 active torsions:
REMARK  status: ('A' for Active; 'I' for Inactive)
REMARK    1  A    between atoms: C8_8  and  C9_9 
REMARK    2  A    between atoms: C8_8  and  N10_10 
ROOT
HETATM    1  C1  UNL     1     -33.771   5.632   1.936  1.00 20.00     0.032 C 
HETATM    2  C2  UNL     1     -33.934   6.087   3.384  1.00 20.00     0.024 C 
HETATM    3  C3  UNL     1     -32.444   6.119   1.348  1.00 20.00     0.272 C 
HETATM    4  C4  UNL     1     -32.388   8.014   2.864  1.00 20.00     0.292 C 
HETATM    5  C5  UNL     1     -33.721   7.595   3.495  1.00 20.00     0.110 C 
HETATM    6  N10 UNL     1     -32.225   7.566   1.472  1.00 20.00     0.090 N 
HETATM    7 CL11 UNL     1     -33.760   8.086   5.214  1.00 20.00    -0.123 Cl
ENDROOT
BRANCH   6   8
HETATM    8  C8  UNL     1     -33.051   8.333   0.543  1.00 20.00     0.276 C 
BRANCH   8   9
HETATM    9  C9  UNL     1     -32.465   9.724   0.275  1.00 20.00     0.006 C 
HETATM   10  C6  UNL     1     -31.063   9.657  -0.333  1.00 20.00     0.011 C 
HETATM   11  C7  UNL     1     -33.388  10.579  -0.595  1.00 20.00     0.011 C 
ENDBRANCH   8   9
ENDBRANCH   6   8
TORSDOF 2
