REMARK  2 active torsions:
REMARK  status: ('A' for Active; 'I' for Inactive)
REMARK    1  A    between atoms: C5_5  and  N8_8 
REMARK    2  A    between atoms: C6_6  and  N8_8 
ROOT
HETATM    1  N8  UNL     1     -32.709   7.856   2.507  1.00 20.00     0.097 N 
HETATM    2  H22 UNL     1     -32.717   8.743   3.003  1.00 20.00     0.317 HD
ENDROOT
BRANCH   1   3
HETATM    3  C5  UNL     1     -32.130   8.065   1.177  1.00 20.00     0.225 A 
HETATM    4  C1  UNL     1     -30.943   8.978   1.008  1.00 20.00     0.042 A 
HETATM    5  C4  UNL     1     -32.280   9.378   0.447  1.00 20.00     0.016 A 
HETATM    6  C7  UNL     1     -33.022  10.530   1.033  1.00 20.00     0.012 C 
ENDBRANCH   1   3
BRANCH   1   7
HETATM    7  C6  UNL     1     -34.065   7.344   2.399  1.00 20.00     0.268 C 
HETATM    8  C2  UNL     1     -34.626   7.145   3.807  1.00 20.00     0.205 C 
HETATM    9  O9  UNL     1     -34.329   5.726   3.767  1.00 20.00    -0.387 OA
HETATM   10  C3  UNL     1     -34.011   5.818   2.354  1.00 20.00     0.205 C 
ENDBRANCH   1   7
TORSDOF 2
