REMARK  2 active torsions:
REMARK  status: ('A' for Active; 'I' for Inactive)
REMARK    1  A    between atoms: C1_1  and  C7_7 
REMARK    2  A    between atoms: C7_7  and  S10_10 
ROOT
HETATM    1  C1  UNL     1     -33.601   5.713   2.870  1.00 20.00     0.061 A 
HETATM    2  C2  UNL     1     -34.578   6.091   3.768  1.00 20.00     0.006 A 
HETATM    3  C3  UNL     1     -33.721   3.854   4.027  1.00 20.00     0.072 A 
HETATM    4  C4  UNL     1     -35.309   7.367   3.898  1.00 20.00     0.058 C 
HETATM    5  C5  UNL     1     -33.456   2.474   4.489  1.00 20.00     0.078 C 
HETATM    6  N8  UNL     1     -33.109   4.431   3.017  1.00 20.00    -0.249 NA
HETATM    7  S9  UNL     1     -34.901   4.795   4.844  1.00 20.00    -0.078 SA
ENDROOT
BRANCH   1   8
HETATM    8  C7  UNL     1     -33.032   6.573   1.758  1.00 20.00     0.093 C 
HETATM    9  C6  UNL     1     -31.970   5.847   0.934  1.00 20.00     0.028 C 
BRANCH   8  10
HETATM   10  S10 UNL     1     -32.345   8.133   2.418  1.00 20.00    -0.172 SA
HETATM   11  H21 UNL     1     -31.953   8.613   1.232  1.00 20.00     0.102 HD
ENDBRANCH   8  10
ENDBRANCH   1   8
TORSDOF 2
