REMARK  2 active torsions:
REMARK  status: ('A' for Active; 'I' for Inactive)
REMARK    1  A    between atoms: C6_6  and  C7_7 
REMARK    2  A    between atoms: C7_7  and  N9_9 
ROOT
HETATM    1  C1  UNL     1     -31.773   9.957   0.124  1.00 20.00     0.012 C 
HETATM    2  C2  UNL     1     -32.376   9.038   0.607  1.00 20.00    -0.116 C 
HETATM    3  C6  UNL     1     -33.118   7.913   1.195  1.00 20.00     0.113 C 
ENDROOT
BRANCH   3   4
HETATM    4  C7  UNL     1     -33.008   7.880   2.720  1.00 20.00     0.141 C 
BRANCH   4   5
HETATM    5  N9  UNL     1     -33.724   6.763   3.331  1.00 20.00    -0.349 N 
HETATM    6  C4  UNL     1     -34.923   6.829   3.983  1.00 20.00     0.111 A 
HETATM    7  C3  UNL     1     -35.183   5.537   4.375  1.00 20.00     0.135 A 
HETATM    8  N8  UNL     1     -34.179   4.688   3.981  1.00 20.00    -0.255 NA
HETATM    9  C5  UNL     1     -33.316   5.458   3.355  1.00 20.00     0.209 A 
ENDBRANCH   4   5
ENDBRANCH   3   4
TORSDOF 2
