REMARK  2 active torsions:
REMARK  status: ('A' for Active; 'I' for Inactive)
REMARK    1  A    between atoms: C4_4  and  C5_5 
REMARK    2  A    between atoms: C5_5  and  C7_7 
ROOT
HETATM    1  C1  UNL     1     -34.478   4.980   3.223  1.00 20.00     0.033 A 
HETATM    2  C2  UNL     1     -35.459   5.065   4.186  1.00 20.00     0.088 A 
HETATM    3  C3  UNL     1     -34.642   7.128   3.879  1.00 20.00     0.102 A 
HETATM    4  C4  UNL     1     -33.961   6.285   3.029  1.00 20.00     0.027 A 
HETATM    5  N10 UNL     1     -35.549   6.376   4.578  1.00 20.00    -0.374 N 
HETATM    6  H22 UNL     1     -36.188   6.733   5.275  1.00 20.00     0.164 HD
ENDROOT
BRANCH   4   7
HETATM    7  C5  UNL     1     -32.903   6.707   2.108  1.00 20.00     0.165 C 
HETATM    8  O11 UNL     1     -32.301   5.956   1.347  1.00 20.00    -0.292 OA
BRANCH   7   9
HETATM    9  C7  UNL     1     -32.551   8.132   2.100  1.00 20.00     0.065 A 
HETATM   10  C6  UNL     1     -31.114   8.536   1.890  1.00 20.00     0.018 A 
HETATM   11  C8  UNL     1     -32.125   8.777   0.805  1.00 20.00    -0.006 A 
HETATM   12  C9  UNL     1     -32.560  10.165   0.482  1.00 20.00     0.011 C 
ENDBRANCH   7   9
ENDBRANCH   4   7
TORSDOF 2
