REMARK  2 active torsions:
REMARK  status: ('A' for Active; 'I' for Inactive)
REMARK    1  A    between atoms: C1_1  and  C7_7 
REMARK    2  A    between atoms: C7_7  and  S10_10 
ROOT
HETATM    1  C1  UNL     1     -32.794   7.704   2.357  1.00 20.00     0.061 A 
HETATM    2  C2  UNL     1     -32.657   6.749   1.372  1.00 20.00     0.006 A 
HETATM    3  C3  UNL     1     -32.398   9.036   0.661  1.00 20.00     0.072 A 
HETATM    4  C4  UNL     1     -32.748   5.278   1.452  1.00 20.00     0.058 C 
HETATM    5  C5  UNL     1     -32.179  10.267  -0.129  1.00 20.00     0.078 C 
HETATM    6  N8  UNL     1     -32.646   9.016   1.952  1.00 20.00    -0.249 NA
HETATM    7  S9  UNL     1     -32.330   7.514  -0.128  1.00 20.00    -0.078 SA
ENDROOT
BRANCH   1   8
HETATM    8  C7  UNL     1     -33.085   7.438   3.821  1.00 20.00     0.093 C 
HETATM    9  C6  UNL     1     -33.159   8.720   4.649  1.00 20.00     0.028 C 
BRANCH   8  10
HETATM   10  S10 UNL     1     -34.622   6.467   4.018  1.00 20.00    -0.172 SA
HETATM   11  H21 UNL     1     -34.574   6.420   5.355  1.00 20.00     0.102 HD
ENDBRANCH   8  10
ENDBRANCH   1   8
TORSDOF 2
