REMARK  4 active torsions:
REMARK  status: ('A' for Active; 'I' for Inactive)
REMARK    1  A    between atoms: C4_4  and  C8_8 
REMARK    2  A    between atoms: C5_5  and  C9_9 
REMARK    3  A    between atoms: C8_8  and  N10_10 
REMARK    4  A    between atoms: C9_9  and  N10_10 
ROOT
HETATM    1  C7  UNL     1     -34.244   7.403   3.971  1.00 20.00     0.310 C 
HETATM    2  N10 UNL     1     -33.596   7.181   2.669  1.00 20.00     0.087 N 
ENDROOT
BRANCH   2   3
HETATM    3  C8  UNL     1     -32.646   8.217   2.373  1.00 20.00     0.277 C 
BRANCH   3   4
HETATM    4  C4  UNL     1     -32.351   8.278   0.914  1.00 20.00     0.018 A 
HETATM    5  C1  UNL     1     -31.099   8.953   0.419  1.00 20.00     0.011 A 
HETATM    6  C3  UNL     1     -32.445   9.560   0.120  1.00 20.00    -0.012 A 
HETATM    7  C6  UNL     1     -32.840  10.856   0.738  1.00 20.00     0.010 C 
ENDBRANCH   3   4
ENDBRANCH   2   3
BRANCH   2   8
HETATM    8  C9  UNL     1     -32.962   5.852   2.657  1.00 20.00     0.305 C 
BRANCH   8   9
HETATM    9  C5  UNL     1     -33.968   4.774   2.878  1.00 20.00     0.173 A 
HETATM   10  C2  UNL     1     -34.458   4.439   4.259  1.00 20.00     0.201 A 
HETATM   11  O11 UNL     1     -33.472   3.636   3.590  1.00 20.00    -0.379 OA
ENDBRANCH   8   9
ENDBRANCH   2   8
TORSDOF 4
