REMARK  3 active torsions:
REMARK  status: ('A' for Active; 'I' for Inactive)
REMARK    1  A    between atoms: C5_5  and  C9_9 
REMARK    2  A    between atoms: C8_8  and  N10_10 
REMARK    3  A    between atoms: C9_9  and  N10_10 
ROOT
HETATM    1  C1  UNL     1     -32.269  10.717   0.105  1.00 20.00     0.013 C 
HETATM    2  C2  UNL     1     -32.243   9.523   0.231  1.00 20.00    -0.087 C 
HETATM    3  C8  UNL     1     -32.214   8.066   0.379  1.00 20.00     0.364 C 
ENDROOT
BRANCH   3   4
HETATM    4  N10 UNL     1     -31.534   7.684   1.627  1.00 20.00     0.095 N 
HETATM    5  C7  UNL     1     -31.520   6.218   1.748  1.00 20.00     0.310 C 
BRANCH   4   6
HETATM    6  C9  UNL     1     -32.151   8.299   2.770  1.00 20.00     0.278 C 
BRANCH   6   7
HETATM    7  C5  UNL     1     -33.561   7.847   2.928  1.00 20.00     0.018 A 
HETATM    8  C3  UNL     1     -33.866   6.510   3.553  1.00 20.00     0.011 A 
HETATM    9  C4  UNL     1     -34.244   7.778   4.274  1.00 20.00    -0.012 A 
HETATM   10  C6  UNL     1     -33.556   8.156   5.541  1.00 20.00     0.010 C 
ENDBRANCH   6   7
ENDBRANCH   4   6
ENDBRANCH   3   4
TORSDOF 3
