REMARK  3 active torsions:
REMARK  status: ('A' for Active; 'I' for Inactive)
REMARK    1  A    between atoms: C4_4  and  C8_8 
REMARK    2  A    between atoms: C7_7  and  N10_10 
REMARK    3  A    between atoms: C8_8  and  N10_10 
ROOT
HETATM    1  C1  UNL     1     -35.215   5.700   4.318  1.00 20.00     0.089 C 
HETATM    2  C7  UNL     1     -34.457   6.910   4.003  1.00 20.00     0.394 C 
HETATM    3  N9  UNL     1     -35.817   4.741   4.571  1.00 20.00    -0.195 NA
ENDROOT
BRANCH   2   4
HETATM    4  N10 UNL     1     -33.778   6.781   2.704  1.00 20.00     0.097 N 
HETATM    5  C6  UNL     1     -33.239   5.419   2.567  1.00 20.00     0.311 C 
BRANCH   4   6
HETATM    6  C8  UNL     1     -32.747   7.770   2.551  1.00 20.00     0.278 C 
BRANCH   6   7
HETATM    7  C4  UNL     1     -32.437   8.007   1.114  1.00 20.00     0.018 A 
HETATM    8  C2  UNL     1     -31.131   8.644   0.716  1.00 20.00     0.011 A 
HETATM    9  C3  UNL     1     -32.419   9.411   0.566  1.00 20.00    -0.012 A 
HETATM   10  C5  UNL     1     -32.969   9.692  -0.789  1.00 20.00     0.010 C 
ENDBRANCH   6   7
ENDBRANCH   4   6
ENDBRANCH   2   4
TORSDOF 3
