REMARK  4 active torsions:
REMARK  status: ('A' for Active; 'I' for Inactive)
REMARK    1  A    between atoms: C8_8  and  C11_11 
REMARK    2  A    between atoms: C9_9  and  C10_10 
REMARK    3  A    between atoms: C10_10  and  C11_11 
REMARK    4  A    between atoms: C11_11  and  O12_12 
ROOT
HETATM    1  C1  UNL     1     -33.846   4.030   4.395  1.00 20.00     0.012 C 
HETATM    2  C2  UNL     1     -34.383   5.095   4.253  1.00 20.00    -0.117 C 
HETATM    3  C9  UNL     1     -35.043   6.396   4.081  1.00 20.00     0.095 C 
ENDROOT
BRANCH   3   4
HETATM    4  C10 UNL     1     -34.421   7.218   2.948  1.00 20.00     0.044 C 
BRANCH   4   5
HETATM    5  C11 UNL     1     -32.931   7.521   3.152  1.00 20.00     0.123 C 
BRANCH   5   6
HETATM    6  C8  UNL     1     -32.378   8.349   1.995  1.00 20.00     0.018 C 
HETATM    7  C6  UNL     1     -33.160   9.667   1.844  1.00 20.00     0.034 C 
HETATM    8  C4  UNL     1     -32.869  10.380   0.557  1.00 20.00    -0.030 C 
HETATM    9  C3  UNL     1     -32.250   9.799  -0.479  1.00 20.00    -0.031 C 
HETATM   10  C5  UNL     1     -31.811   8.365  -0.472  1.00 20.00     0.027 C 
HETATM   11  C7  UNL     1     -32.408   7.555   0.682  1.00 20.00     0.011 C 
ENDBRANCH   5   6
BRANCH   5  12
HETATM   12  O12 UNL     1     -32.762   8.256   4.360  1.00 20.00    -0.395 OA
HETATM   13  H28 UNL     1     -33.256   9.084   4.252  1.00 20.00     0.210 HD
ENDBRANCH   5  12
ENDBRANCH   4   5
ENDBRANCH   3   4
TORSDOF 4
