REMARK  2 active torsions:
REMARK  status: ('A' for Active; 'I' for Inactive)
REMARK    1  A    between atoms: C6_6  and  C8_8 
REMARK    2  A    between atoms: C8_8  and  N9_9 
ROOT
HETATM    1  C1  UNL     1     -32.378   9.200   0.766  1.00 20.00     0.332 C 
HETATM    2  N9  UNL     1     -32.467   8.308   1.529  1.00 20.00    -0.247 NA
HETATM    3  O10 UNL     1     -32.285  10.090   0.002  1.00 20.00    -0.260 OA
ENDROOT
BRANCH   2   4
HETATM    4  C8  UNL     1     -33.730   8.247   2.250  1.00 20.00     0.162 C 
BRANCH   4   5
HETATM    5  C6  UNL     1     -33.680   7.050   3.202  1.00 20.00    -0.026 C 
HETATM    6  C4  UNL     1     -33.467   5.733   2.443  1.00 20.00     0.011 C 
HETATM    7  C2  UNL     1     -34.007   4.648   3.372  1.00 20.00     0.001 C 
HETATM    8  C3  UNL     1     -35.017   5.337   4.290  1.00 20.00     0.001 C 
HETATM    9  C5  UNL     1     -35.039   6.806   3.874  1.00 20.00     0.011 C 
HETATM   10  C7  UNL     1     -32.575   7.279   4.246  1.00 20.00     0.017 C 
ENDBRANCH   4   5
ENDBRANCH   2   4
TORSDOF 2
