REMARK  3 active torsions:
REMARK  status: ('A' for Active; 'I' for Inactive)
REMARK    1  A    between atoms: C1_1  and  C6_6 
REMARK    2  A    between atoms: C6_6  and  C7_7 
REMARK    3  A    between atoms: C7_7  and  C8_8 
ROOT
HETATM    1  C2  UNL     1     -33.525   5.248   1.828  1.00 20.00     0.011 C 
HETATM    2  C7  UNL     1     -33.443   6.490   2.736  1.00 20.00    -0.003 C 
ENDROOT
BRANCH   2   3
HETATM    3  C6  UNL     1     -33.499   7.759   1.852  1.00 20.00     0.101 C 
BRANCH   3   4
HETATM    4  C1  UNL     1     -32.198   8.037   1.108  1.00 20.00     0.219 C 
HETATM    5  O9  UNL     1     -31.220   7.299   1.177  1.00 20.00    -0.280 OA
HETATM    6 CL10 UNL     1     -32.309   9.473   0.127  1.00 20.00    -0.044 Cl
ENDBRANCH   3   4
ENDBRANCH   2   3
BRANCH   2   7
HETATM    7  C8  UNL     1     -34.520   6.495   3.887  1.00 20.00    -0.048 C 
HETATM    8  C3  UNL     1     -34.332   7.723   4.805  1.00 20.00     0.015 C 
HETATM    9  C4  UNL     1     -34.356   5.240   4.774  1.00 20.00     0.015 C 
HETATM   10  C5  UNL     1     -35.960   6.517   3.342  1.00 20.00     0.015 C 
ENDBRANCH   2   7
TORSDOF 3
