REMARK  4 active torsions:
REMARK  status: ('A' for Active; 'I' for Inactive)
REMARK    1  A    between atoms: C2_2  and  C10_10 
REMARK    2  A    between atoms: C7_7  and  C11_11 
REMARK    3  A    between atoms: C10_10  and  N12_12 
REMARK    4  A    between atoms: C11_11  and  N12_12 
ROOT
HETATM    1  C1  UNL     1     -33.633   3.853   4.315  1.00 20.00    -0.109 C 
HETATM    2  C2  UNL     1     -34.054   4.906   3.919  1.00 20.00    -0.077 C 
HETATM    3  C8  UNL     1     -33.122   2.570   4.796  1.00 20.00     0.112 C 
ENDROOT
BRANCH   2   4
HETATM    4  C10 UNL     1     -34.573   6.189   3.437  1.00 20.00     0.362 C 
BRANCH   4   5
HETATM    5  N12 UNL     1     -33.483   7.153   3.230  1.00 20.00     0.095 N 
HETATM    6  H31 UNL     1     -32.815   7.038   4.009  1.00 20.00     0.317 HD
BRANCH   5   7
HETATM    7  C11 UNL     1     -32.840   6.977   1.975  1.00 20.00     0.279 C 
BRANCH   7   8
HETATM    8  C7  UNL     1     -32.099   8.266   1.598  1.00 20.00    -0.018 C 
HETATM    9  C5  UNL     1     -32.939   9.514   1.960  1.00 20.00     0.011 C 
HETATM   10  C3  UNL     1     -33.385  10.110   0.631  1.00 20.00     0.001 C 
HETATM   11  C4  UNL     1     -32.238   9.780  -0.306  1.00 20.00     0.001 C 
HETATM   12  C6  UNL     1     -31.895   8.345   0.068  1.00 20.00     0.011 C 
HETATM   13  C9  UNL     1     -30.749   8.301   2.328  1.00 20.00     0.017 C 
ENDBRANCH   7   8
ENDBRANCH   5   7
ENDBRANCH   4   5
ENDBRANCH   2   4
TORSDOF 4
