REMARK  4 active torsions:
REMARK  status: ('A' for Active; 'I' for Inactive)
REMARK    1  A    between atoms: C6_6  and  C10_10 
REMARK    2  A    between atoms: C8_8  and  C9_9 
REMARK    3  A    between atoms: C9_9  and  C10_10 
REMARK    4  A    between atoms: C10_10  and  O11_11 
ROOT
HETATM    1  C1  UNL     1     -35.182   4.941   4.668  1.00 20.00    -0.031 C 
HETATM    2  C2  UNL     1     -35.500   6.241   4.598  1.00 20.00    -0.030 C 
HETATM    3  C3  UNL     1     -33.938   4.367   4.058  1.00 20.00     0.027 C 
HETATM    4  C4  UNL     1     -34.661   7.253   3.876  1.00 20.00     0.034 C 
HETATM    5  C5  UNL     1     -32.926   5.435   3.631  1.00 20.00     0.011 C 
HETATM    6  C6  UNL     1     -33.619   6.615   2.939  1.00 20.00     0.018 C 
ENDROOT
BRANCH   6   7
HETATM    7  C10 UNL     1     -32.602   7.655   2.474  1.00 20.00     0.122 C 
BRANCH   7   8
HETATM    8  C9  UNL     1     -33.275   8.777   1.679  1.00 20.00     0.032 C 
BRANCH   8   9
HETATM    9  C8  UNL     1     -32.261   9.806   1.172  1.00 20.00    -0.002 C 
HETATM   10  C7  UNL     1     -32.937  10.892   0.349  1.00 20.00     0.005 C 
ENDBRANCH   8   9
ENDBRANCH   7   8
BRANCH   7  11
HETATM   11  O11 UNL     1     -31.622   7.003   1.673  1.00 20.00    -0.395 OA
HETATM   12  H29 UNL     1     -31.206   6.331   2.235  1.00 20.00     0.210 HD
ENDBRANCH   7  11
ENDBRANCH   6   7
TORSDOF 4
