REMARK  3 active torsions:
REMARK  status: ('A' for Active; 'I' for Inactive)
REMARK    1  A    between atoms: C4_4  and  C8_8 
REMARK    2  A    between atoms: C8_8  and  N11_11 
REMARK    3  A    between atoms: C9_9  and  N11_11 
ROOT
HETATM    1  C1  UNL     1     -33.844   4.601   4.009  1.00 20.00     0.095 C 
HETATM    2  C6  UNL     1     -35.701   6.196   3.713  1.00 20.00     0.059 C 
HETATM    3  C9  UNL     1     -34.191   6.010   3.785  1.00 20.00     0.324 C 
HETATM    4  N10 UNL     1     -33.570   3.487   4.188  1.00 20.00    -0.195 NA
ENDROOT
BRANCH   3   5
HETATM    5  N11 UNL     1     -33.547   6.495   2.554  1.00 20.00     0.102 N 
HETATM    6  C7  UNL     1     -32.184   5.950   2.467  1.00 20.00     0.311 C 
BRANCH   5   7
HETATM    7  C8  UNL     1     -33.541   7.931   2.497  1.00 20.00     0.278 C 
BRANCH   7   8
HETATM    8  C4  UNL     1     -33.408   8.414   1.094  1.00 20.00     0.018 A 
HETATM    9  C2  UNL     1     -32.056   8.454   0.433  1.00 20.00     0.011 A 
HETATM   10  C3  UNL     1     -32.746   9.738   0.810  1.00 20.00    -0.012 A 
HETATM   11  C5  UNL     1     -33.291  10.634  -0.248  1.00 20.00     0.010 C 
ENDBRANCH   7   8
ENDBRANCH   5   7
ENDBRANCH   3   5
TORSDOF 3
