REMARK  3 active torsions:
REMARK  status: ('A' for Active; 'I' for Inactive)
REMARK    1  A    between atoms: C5_5  and  C6_6 
REMARK    2  A    between atoms: C5_5  and  C7_7 
REMARK    3  A    between atoms: C7_7  and  C8_8 
ROOT
HETATM    1  C1  UNL     1     -33.103   5.877   1.014  1.00 20.00     0.011 C 
HETATM    2  C7  UNL     1     -32.732   6.749   2.227  1.00 20.00    -0.010 C 
ENDROOT
BRANCH   2   3
HETATM    3  C5  UNL     1     -32.315   8.171   1.756  1.00 20.00     0.020 C 
BRANCH   3   4
HETATM    4  C6  UNL     1     -33.112   8.761   0.590  1.00 20.00     0.115 C 
HETATM    5 CL9  UNL     1     -32.589  10.411   0.184  1.00 20.00    -0.130 Cl
ENDBRANCH   3   4
ENDBRANCH   2   3
BRANCH   2   6
HETATM    6  C8  UNL     1     -33.855   6.767   3.337  1.00 20.00    -0.048 C 
HETATM    7  C2  UNL     1     -33.386   7.584   4.563  1.00 20.00     0.015 C 
HETATM    8  C3  UNL     1     -34.230   5.353   3.819  1.00 20.00     0.015 C 
HETATM    9  C4  UNL     1     -35.135   7.452   2.806  1.00 20.00     0.015 C 
ENDBRANCH   2   6
TORSDOF 3
