REMARK  3 active torsions:
REMARK  status: ('A' for Active; 'I' for Inactive)
REMARK    1  A    between atoms: C4_4  and  C8_8 
REMARK    2  A    between atoms: C7_7  and  N10_10 
REMARK    3  A    between atoms: C8_8  and  N10_10 
ROOT
HETATM    1  C1  UNL     1     -34.639   6.429   3.937  1.00 20.00     0.089 C 
HETATM    2  C7  UNL     1     -33.479   7.180   3.460  1.00 20.00     0.394 C 
HETATM    3  N9  UNL     1     -35.559   5.834   4.319  1.00 20.00    -0.195 NA
ENDROOT
BRANCH   2   4
HETATM    4  N10 UNL     1     -33.186   6.856   2.055  1.00 20.00     0.097 N 
HETATM    5  C6  UNL     1     -32.901   5.417   1.934  1.00 20.00     0.311 C 
BRANCH   4   6
HETATM    6  C8  UNL     1     -32.099   7.649   1.550  1.00 20.00     0.278 C 
BRANCH   6   7
HETATM    7  C4  UNL     1     -32.548   9.032   1.224  1.00 20.00     0.018 A 
HETATM    8  C2  UNL     1     -31.544  10.150   1.125  1.00 20.00     0.011 A 
HETATM    9  C3  UNL     1     -32.223   9.636  -0.117  1.00 20.00    -0.012 A 
HETATM   10  C5  UNL     1     -33.230  10.477  -0.822  1.00 20.00     0.010 C 
ENDBRANCH   6   7
ENDBRANCH   4   6
ENDBRANCH   2   4
TORSDOF 3
