REMARK  2 active torsions:
REMARK  status: ('A' for Active; 'I' for Inactive)
REMARK    1  A    between atoms: C3_3  and  C8_8 
REMARK    2  A    between atoms: C10_10  and  N11_11 
ROOT
HETATM    1  C1  UNL     1     -31.830  10.966  -0.611  1.00 20.00     0.013 C 
HETATM    2  C2  UNL     1     -32.361  10.018  -0.100  1.00 20.00    -0.087 C 
HETATM    3  C10 UNL     1     -33.013   8.862   0.520  1.00 20.00     0.364 C 
ENDROOT
BRANCH   3   4
HETATM    4  N11 UNL     1     -32.161   8.282   1.555  1.00 20.00     0.100 N 
HETATM    5  C6  UNL     1     -31.111   7.421   0.995  1.00 20.00     0.273 C 
HETATM    6  C4  UNL     1     -31.618   6.073   0.478  1.00 20.00     0.031 C 
HETATM    7  C5  UNL     1     -32.418   5.334   1.546  1.00 20.00     0.015 C 
HETATM    8  C8  UNL     1     -33.512   6.231   2.126  1.00 20.00     0.083 C 
HETATM    9  C7  UNL     1     -32.935   7.578   2.585  1.00 20.00     0.285 C 
BRANCH   8  10
HETATM   10  C3  UNL     1     -34.176   5.542   3.281  1.00 20.00     0.129 C 
HETATM   11  C9  UNL     1     -35.304   6.279   3.952  1.00 20.00     0.091 C 
HETATM   12  O12 UNL     1     -33.819   4.427   3.659  1.00 20.00    -0.298 OA
ENDBRANCH   8  10
ENDBRANCH   3   4
TORSDOF 2
