REMARK  3 active torsions:
REMARK  status: ('A' for Active; 'I' for Inactive)
REMARK    1  A    between atoms: C5_5  and  C9_9 
REMARK    2  A    between atoms: C8_8  and  N10_10 
REMARK    3  A    between atoms: C9_9  and  N10_10 
ROOT
HETATM    1  C1  UNL     1     -32.635   9.992   0.124  1.00 20.00     0.013 C 
HETATM    2  C2  UNL     1     -32.254   8.991   0.667  1.00 20.00    -0.087 C 
HETATM    3  C8  UNL     1     -31.785   7.773   1.332  1.00 20.00     0.364 C 
ENDROOT
BRANCH   3   4
HETATM    4  N10 UNL     1     -32.632   6.625   0.970  1.00 20.00     0.095 N 
HETATM    5  C7  UNL     1     -31.902   5.375   1.234  1.00 20.00     0.310 C 
BRANCH   4   6
HETATM    6  C9  UNL     1     -33.885   6.658   1.673  1.00 20.00     0.278 C 
BRANCH   6   7
HETATM    7  C5  UNL     1     -33.681   6.557   3.145  1.00 20.00     0.018 A 
HETATM    8  C3  UNL     1     -34.864   6.581   4.077  1.00 20.00     0.011 A 
HETATM    9  C4  UNL     1     -33.923   7.756   4.025  1.00 20.00    -0.012 A 
HETATM   10  C6  UNL     1     -33.014   8.038   5.171  1.00 20.00     0.010 C 
ENDBRANCH   6   7
ENDBRANCH   4   6
ENDBRANCH   3   4
TORSDOF 3
