REMARK  4 active torsions:
REMARK  status: ('A' for Active; 'I' for Inactive)
REMARK    1  A    between atoms: C1_1  and  C5_5 
REMARK    2  A    between atoms: C2_2  and  C6_6 
REMARK    3  A    between atoms: C5_5  and  N8_8 
REMARK    4  A    between atoms: C7_7  and  N8_8 
ROOT
HETATM    1  C5  UNL     1     -33.354   6.045   2.516  1.00 20.00     0.299 C 
ENDROOT
BRANCH   1   2
HETATM    2  C1  UNL     1     -32.471   7.224   2.267  1.00 20.00     0.000 C 
HETATM    3  C2  UNL     1     -32.232   7.729   1.047  1.00 20.00    -0.014 C 
BRANCH   3   4
HETATM    4  C6  UNL     1     -31.365   8.919   0.800  1.00 20.00     0.141 C 
HETATM    5 CL9  UNL     1     -32.316  10.213   0.040  1.00 20.00    -0.126 Cl
ENDBRANCH   3   4
ENDBRANCH   1   2
BRANCH   1   6
HETATM    6  N8  UNL     1     -33.980   6.192   3.799  1.00 20.00     0.087 N 
HETATM    7  C4  UNL     1     -34.797   7.415   3.862  1.00 20.00     0.310 C 
BRANCH   6   8
HETATM    8  C7  UNL     1     -34.819   5.027   4.125  1.00 20.00     0.268 C 
HETATM    9  C3  UNL     1     -34.028   3.764   4.073  1.00 20.00     0.037 C 
ENDBRANCH   6   8
ENDBRANCH   1   6
TORSDOF 4
