REMARK  1 active torsions:
REMARK  status: ('A' for Active; 'I' for Inactive)
REMARK    1  A    between atoms: C6_6  and  N8_8 
ROOT
HETATM    1  C1  UNL     1     -32.356   8.066   1.089  1.00 20.00     0.158 C 
HETATM    2  N8  UNL     1     -32.135   7.212   1.861  1.00 20.00    -0.265 NA
HETATM    3  S9  UNL     1     -32.621   9.237   0.043  1.00 20.00    -0.055 SA
ENDROOT
BRANCH   2   4
HETATM    4  C6  UNL     1     -33.279   6.349   2.161  1.00 20.00     0.051 C 
HETATM    5  C4  UNL     1     -34.427   7.170   2.745  1.00 20.00     0.033 C 
HETATM    6  C2  UNL     1     -35.242   6.171   3.563  1.00 20.00     0.002 C 
HETATM    7  C3  UNL     1     -34.288   5.030   3.920  1.00 20.00     0.002 C 
HETATM    8  C5  UNL     1     -32.940   5.393   3.303  1.00 20.00     0.033 C 
HETATM    9  C7  UNL     1     -33.674   5.616   0.880  1.00 20.00     0.041 C 
ENDBRANCH   2   4
TORSDOF 1
