REMARK  4 active torsions:
REMARK  status: ('A' for Active; 'I' for Inactive)
REMARK    1  A    between atoms: C1_1  and  C12_12 
REMARK    2  A    between atoms: C6_6  and  C10_10 
REMARK    3  A    between atoms: C7_7  and  C11_11 
REMARK    4  A    between atoms: C11_11  and  C12_12 
ROOT
HETATM    1  C2  UNL     1     -32.851   6.169   0.977  1.00 20.00     0.001 C 
HETATM    2  C3  UNL     1     -31.572   7.003   1.011  1.00 20.00     0.005 C 
HETATM    3  C4  UNL     1     -33.349   5.844   2.382  1.00 20.00     0.005 C 
HETATM    4  C5  UNL     1     -32.244   7.941   3.261  1.00 20.00     0.009 C 
HETATM    5  C6  UNL     1     -31.705   8.274   1.861  1.00 20.00    -0.014 C 
HETATM    6  C7  UNL     1     -33.535   7.109   3.231  1.00 20.00    -0.013 C 
ENDROOT
BRANCH   6   7
HETATM    7  C11 UNL     1     -33.971   6.744   4.649  1.00 20.00     0.015 C 
BRANCH   7   8
HETATM    8  C12 UNL     1     -35.308   5.999   4.675  1.00 20.00     0.043 C 
HETATM    9  C9  UNL     1     -36.286   6.622   3.682  1.00 20.00     0.017 C 
BRANCH   8  10
HETATM   10  C1  UNL     1     -35.176   4.525   4.332  1.00 20.00     0.235 C 
HETATM   11  O13 UNL     1     -34.192   3.833   4.572  1.00 20.00    -0.306 OA
ENDBRANCH   8  10
ENDBRANCH   7   8
ENDBRANCH   6   7
BRANCH   5  12
HETATM   12  C10 UNL     1     -32.558   9.336   1.162  1.00 20.00     0.000 C 
HETATM   13  C8  UNL     1     -32.003   9.694  -0.177  1.00 20.00     0.005 C 
ENDBRANCH   5  12
TORSDOF 4
