REMARK  4 active torsions:
REMARK  status: ('A' for Active; 'I' for Inactive)
REMARK    1  A    between atoms: C2_2  and  C5_5 
REMARK    2  A    between atoms: C5_5  and  C6_6 
REMARK    3  A    between atoms: C6_6  and  C8_8 
REMARK    4  A    between atoms: C7_7  and  C8_8 
ROOT
HETATM    1  C1  UNL     1     -32.246   8.780   0.724  1.00 20.00    -0.111 C 
HETATM    2  C2  UNL     1     -31.930   7.669   1.050  1.00 20.00    -0.107 C 
HETATM    3  C3  UNL     1     -32.634  10.133   0.326  1.00 20.00     0.112 C 
ENDROOT
BRANCH   2   4
HETATM    4  C5  UNL     1     -31.540   6.309   1.446  1.00 20.00     0.094 C 
BRANCH   4   5
HETATM    5  C6  UNL     1     -32.741   5.454   1.859  1.00 20.00     0.017 C 
BRANCH   5   6
HETATM    6  C8  UNL     1     -33.511   5.947   3.105  1.00 20.00    -0.004 C 
HETATM    7  C4  UNL     1     -34.502   7.045   2.697  1.00 20.00     0.011 C 
BRANCH   6   8
HETATM    8  C7  UNL     1     -34.208   4.833   3.904  1.00 20.00     0.119 C 
HETATM    9 CL9  UNL     1     -33.104   3.544   4.441  1.00 20.00    -0.130 Cl
ENDBRANCH   6   8
ENDBRANCH   5   6
ENDBRANCH   4   5
ENDBRANCH   2   4
TORSDOF 4
