REMARK  3 active torsions:
REMARK  status: ('A' for Active; 'I' for Inactive)
REMARK    1  A    between atoms: C3_3  and  C5_5 
REMARK    2  A    between atoms: C5_5  and  C7_7 
REMARK    3  A    between atoms: C6_6  and  C7_7 
ROOT
HETATM    1  C5  UNL     1     -33.503   7.511   1.901  1.00 20.00     0.010 C 
ENDROOT
BRANCH   1   2
HETATM    2  C3  UNL     1     -33.730   7.073   3.318  1.00 20.00    -0.014 A 
HETATM    3  C1  UNL     1     -34.365   8.009   4.308  1.00 20.00     0.005 A 
HETATM    4  C2  UNL     1     -35.124   6.810   3.815  1.00 20.00     0.005 A 
ENDBRANCH   1   2
BRANCH   1   5
HETATM    5  C7  UNL     1     -32.134   8.187   1.689  1.00 20.00    -0.004 C 
HETATM    6  C4  UNL     1     -30.997   7.163   1.614  1.00 20.00     0.011 C 
BRANCH   5   7
HETATM    7  C6  UNL     1     -32.141   9.110   0.458  1.00 20.00     0.119 C 
HETATM    8 CL8  UNL     1     -33.039  10.628   0.708  1.00 20.00    -0.130 Cl
ENDBRANCH   5   7
ENDBRANCH   1   5
TORSDOF 3
