REMARK  4 active torsions:
REMARK  status: ('A' for Active; 'I' for Inactive)
REMARK    1  A    between atoms: C1_1  and  C6_6 
REMARK    2  A    between atoms: C2_2  and  C7_7 
REMARK    3  A    between atoms: C6_6  and  S9_9 
REMARK    4  A    between atoms: C8_8  and  S9_9 
ROOT
HETATM    1  C6  UNL     1     -33.613   7.540   3.192  1.00 20.00     0.101 C 
ENDROOT
BRANCH   1   2
HETATM    2  C1  UNL     1     -34.297   6.301   3.676  1.00 20.00    -0.020 C 
HETATM    3  C2  UNL     1     -33.753   5.076   3.606  1.00 20.00    -0.015 C 
BRANCH   3   4
HETATM    4  C7  UNL     1     -34.433   3.840   4.095  1.00 20.00     0.141 C 
HETATM    5 CL10 UNL     1     -33.222   2.647   4.612  1.00 20.00    -0.126 Cl
ENDBRANCH   3   4
ENDBRANCH   1   2
BRANCH   1   6
HETATM    6  S9  UNL     1     -34.022   7.840   1.460  1.00 20.00    -0.156 SA
BRANCH   6   7
HETATM    7  C8  UNL     1     -32.613   8.946   1.061  1.00 20.00    -0.003 C 
HETATM    8  C3  UNL     1     -31.307   8.183   1.301  1.00 20.00     0.026 C 
HETATM    9  C4  UNL     1     -32.725   9.359  -0.410  1.00 20.00     0.026 C 
HETATM   10  C5  UNL     1     -32.686  10.179   1.966  1.00 20.00     0.026 C 
ENDBRANCH   6   7
ENDBRANCH   1   6
TORSDOF 4
