REMARK  3 active torsions:
REMARK  status: ('A' for Active; 'I' for Inactive)
REMARK    1  A    between atoms: C1_1  and  C5_5 
REMARK    2  A    between atoms: C1_1  and  C7_7 
REMARK    3  A    between atoms: C6_6  and  C7_7 
ROOT
HETATM    1  C3  UNL     1     -31.561   8.519   3.087  1.00 20.00     0.023 C 
HETATM    2  C4  UNL     1     -31.723   6.644   1.464  1.00 20.00     0.023 C 
HETATM    3  C7  UNL     1     -32.540   7.715   2.210  1.00 20.00     0.014 C 
ENDROOT
BRANCH   3   4
HETATM    4  C1  UNL     1     -33.594   7.025   3.108  1.00 20.00     0.148 C 
HETATM    5  O8  UNL     1     -34.338   7.688   3.834  1.00 20.00    -0.296 OA
BRANCH   4   6
HETATM    6  C5  UNL     1     -33.670   5.509   3.067  1.00 20.00     0.193 C 
HETATM    7 CL9  UNL     1     -34.921   4.924   4.180  1.00 20.00    -0.123 Cl
ENDBRANCH   4   6
ENDBRANCH   3   4
BRANCH   3   8
HETATM    8  C6  UNL     1     -33.227   8.638   1.174  1.00 20.00     0.012 C 
HETATM    9  C2  UNL     1     -32.280   9.373   0.232  1.00 20.00     0.006 C 
ENDBRANCH   3   8
TORSDOF 3
