REMARK  0 active torsions:
REMARK  status: ('A' for Active; 'I' for Inactive)
ROOT
HETATM    1  C1  UNL     1     -32.456   5.642   1.452  1.00 20.00    -0.088 C 
HETATM    2  C2  UNL     1     -32.469   4.939   0.310  1.00 20.00     0.014 C 
HETATM    3  C3  UNL     1     -33.557   5.545   2.475  1.00 20.00     0.037 C 
HETATM    4  C4  UNL     1     -31.346   6.600   1.802  1.00 20.00     0.042 C 
HETATM    5  C5  UNL     1     -33.015   7.924   3.179  1.00 20.00     0.013 C 
HETATM    6  C6  UNL     1     -34.132   6.934   2.795  1.00 20.00    -0.014 C 
HETATM    7  C7  UNL     1     -31.881   8.016   2.126  1.00 20.00    -0.044 C 
HETATM    8  C8  UNL     1     -35.169   6.836   3.915  1.00 20.00     0.010 C 
HETATM    9  C9  UNL     1     -32.386   8.709   0.844  1.00 20.00     0.015 C 
HETATM   10  C10 UNL     1     -30.732   8.865   2.703  1.00 20.00     0.015 C 
ENDROOT
TORSDOF 0
