REMARK  2 active torsions:
REMARK  status: ('A' for Active; 'I' for Inactive)
REMARK    1  A    between atoms: C7_7  and  C8_8 
REMARK    2  A    between atoms: C7_7  and  N9_9 
ROOT
HETATM    1  C1  UNL     1     -34.219   7.966   2.660  1.00 20.00     0.038 C 
HETATM    2  C2  UNL     1     -34.383   6.629   3.354  1.00 20.00     0.235 C 
HETATM    3  C3  UNL     1     -32.433   6.587   1.862  1.00 20.00     0.243 C 
HETATM    4  C4  UNL     1     -32.729   8.024   2.310  1.00 20.00    -0.022 C 
HETATM    5  C5  UNL     1     -32.459   9.025   1.185  1.00 20.00     0.016 C 
HETATM    6  C6  UNL     1     -31.879   8.406   3.534  1.00 20.00     0.016 C 
HETATM    7  N9  UNL     1     -33.435   5.718   2.607  1.00 20.00    -0.069 N 
HETATM    8  H27 UNL     1     -33.995   5.228   1.890  1.00 20.00     0.280 HD
ENDROOT
BRANCH   7   9
HETATM    9  C7  UNL     1     -32.816   4.658   3.462  1.00 20.00     0.250 C 
BRANCH   9  10
HETATM   10  C8  UNL     1     -33.896   3.783   4.071  1.00 20.00     0.142 C 
HETATM   11 CL10 UNL     1     -33.200   2.487   5.074  1.00 20.00    -0.129 Cl
ENDBRANCH   9  10
ENDBRANCH   7   9
TORSDOF 2
