REMARK  1 active torsions:
REMARK  status: ('A' for Active; 'I' for Inactive)
REMARK    1  A    between atoms: C6_6  and  C9_9 
ROOT
HETATM    1  C1  UNL     1     -33.799   6.892   3.659  1.00 20.00    -0.085 C 
HETATM    2  C2  UNL     1     -34.981   7.174   4.222  1.00 20.00     0.014 C 
HETATM    3  C3  UNL     1     -33.526   5.617   2.910  1.00 20.00     0.059 C 
HETATM    4  C4  UNL     1     -32.624   7.831   3.691  1.00 20.00     0.065 C 
HETATM    5  C5  UNL     1     -32.965   5.947   1.531  1.00 20.00     0.172 C 
HETATM    6  C6  UNL     1     -32.069   8.053   2.279  1.00 20.00     0.128 C 
HETATM    7  O10 UNL     1     -31.820   6.800   1.623  1.00 20.00    -0.385 OA
ENDROOT
BRANCH   6   8
HETATM    8  C9  UNL     1     -32.937   8.974   1.423  1.00 20.00     0.007 C 
HETATM    9  C7  UNL     1     -33.091  10.343   2.086  1.00 20.00     0.012 C 
HETATM   10  C8  UNL     1     -32.348   9.124   0.020  1.00 20.00     0.012 C 
ENDBRANCH   6   8
TORSDOF 1
