REMARK  0 active torsions:
REMARK  status: ('A' for Active; 'I' for Inactive)
ROOT
HETATM    1  C1  UNL     1     -34.031   6.347   3.466  1.00 20.00    -0.066 C 
HETATM    2  C2  UNL     1     -35.284   6.133   3.890  1.00 20.00     0.016 C 
HETATM    3  C3  UNL     1     -33.172   5.258   2.883  1.00 20.00     0.037 C 
HETATM    4  C4  UNL     1     -33.376   7.699   3.509  1.00 20.00     0.201 C 
HETATM    5  C5  UNL     1     -32.560   5.732   1.565  1.00 20.00     0.030 C 
HETATM    6  C6  UNL     1     -31.924   7.111   1.722  1.00 20.00     0.168 C 
HETATM    7  O7  UNL     1     -32.884   8.050   2.211  1.00 20.00    -0.387 OA
ENDROOT
TORSDOF 0
