REMARK  2 active torsions:
REMARK  status: ('A' for Active; 'I' for Inactive)
REMARK    1  A    between atoms: C1_1  and  C5_5 
REMARK    2  A    between atoms: C1_1  and  C6_6 
ROOT
HETATM    1  C2  UNL     1     -34.002   5.718   3.500  1.00 20.00     0.023 C 
HETATM    2  C3  UNL     1     -34.879   6.321   4.584  1.00 20.00     0.075 C 
HETATM    3  C4  UNL     1     -33.058   7.968   3.493  1.00 20.00     0.086 C 
HETATM    4  C5  UNL     1     -33.589   6.866   2.588  1.00 20.00     0.066 C 
HETATM    5  S8  UNL     1     -34.112   7.918   4.970  1.00 20.00    -0.168 SA
ENDROOT
BRANCH   4   6
HETATM    6  C1  UNL     1     -32.541   6.413   1.622  1.00 20.00     0.145 C 
HETATM    7  O7  UNL     1     -32.516   5.248   1.226  1.00 20.00    -0.296 OA
BRANCH   6   8
HETATM    8  C6  UNL     1     -31.548   7.466   1.189  1.00 20.00     0.193 C 
HETATM    9 CL9  UNL     1     -32.371   8.808   0.380  1.00 20.00    -0.123 Cl
ENDBRANCH   6   8
ENDBRANCH   4   6
TORSDOF 2
