REMARK  0 active torsions:
REMARK  status: ('A' for Active; 'I' for Inactive)
ROOT
HETATM    1  C1  UNL     1     -32.796   9.747   0.287  1.00 20.00     0.088 C 
HETATM    2  C2  UNL     1     -32.246   7.609   1.252  1.00 20.00    -0.070 C 
HETATM    3  C3  UNL     1     -32.334   8.411   0.181  1.00 20.00     0.096 C 
HETATM    4  C4  UNL     1     -32.629   8.061   2.635  1.00 20.00     0.035 C 
HETATM    5  C5  UNL     1     -31.776   6.180   1.158  1.00 20.00     0.039 C 
HETATM    6  C6  UNL     1     -33.641   7.104   3.267  1.00 20.00     0.009 C 
HETATM    7  C7  UNL     1     -32.803   5.202   1.764  1.00 20.00    -0.011 C 
HETATM    8  C8  UNL     1     -33.167   5.640   3.208  1.00 20.00    -0.014 C 
HETATM    9  C9  UNL     1     -34.017   5.046   0.839  1.00 20.00     0.010 C 
HETATM   10  C10 UNL     1     -34.194   4.718   3.868  1.00 20.00     0.010 C 
HETATM   11  N11 UNL     1     -33.173  10.841   0.367  1.00 20.00    -0.192 NA
ENDROOT
TORSDOF 0
