REMARK  4 active torsions:
REMARK  status: ('A' for Active; 'I' for Inactive)
REMARK    1  A    between atoms: C5_5  and  C8_8 
REMARK    2  A    between atoms: C6_6  and  C9_9 
REMARK    3  A    between atoms: C9_9  and  C10_10 
REMARK    4  A    between atoms: C10_10  and  O11_11 
ROOT
HETATM    1  C1  UNL     1     -34.425   6.570   3.091  1.00 20.00     0.005 C 
HETATM    2  C2  UNL     1     -32.863   5.924   1.209  1.00 20.00     0.005 C 
HETATM    3  C3  UNL     1     -33.464   7.684   3.507  1.00 20.00     0.005 C 
HETATM    4  C4  UNL     1     -31.901   7.038   1.625  1.00 20.00     0.005 C 
HETATM    5  C5  UNL     1     -33.727   5.409   2.369  1.00 20.00    -0.015 C 
HETATM    6  C6  UNL     1     -32.599   8.198   2.348  1.00 20.00    -0.013 C 
ENDROOT
BRANCH   6   7
HETATM    7  C9  UNL     1     -33.413   9.060   1.377  1.00 20.00     0.030 C 
BRANCH   7   8
HETATM    8  C10 UNL     1     -32.513   9.914   0.504  1.00 20.00     0.164 C 
BRANCH   8   9
HETATM    9  O11 UNL     1     -33.329  10.697  -0.356  1.00 20.00    -0.401 OA
HETATM   10  H31 UNL     1     -32.730  11.232  -0.902  1.00 20.00     0.209 HD
ENDBRANCH   8   9
ENDBRANCH   7   8
ENDBRANCH   6   7
BRANCH   5  11
HETATM   11  C8  UNL     1     -32.914   4.548   3.339  1.00 20.00     0.000 C 
HETATM   12  C7  UNL     1     -33.766   3.999   4.436  1.00 20.00     0.005 C 
ENDBRANCH   5  11
TORSDOF 4
