REMARK  3 active torsions:
REMARK  status: ('A' for Active; 'I' for Inactive)
REMARK    1  A    between atoms: C1_1  and  C12_12 
REMARK    2  A    between atoms: C5_5  and  C11_11 
REMARK    3  A    between atoms: C11_11  and  C12_12 
ROOT
HETATM    1  C2  UNL     1     -32.374   8.035   2.740  1.00 20.00     0.005 C 
HETATM    2  C3  UNL     1     -33.526   7.742   3.704  1.00 20.00     0.005 C 
HETATM    3  C4  UNL     1     -32.669   5.841   1.524  1.00 20.00     0.009 C 
HETATM    4  C5  UNL     1     -32.588   7.371   1.382  1.00 20.00    -0.013 C 
HETATM    5  C6  UNL     1     -34.247   6.405   3.436  1.00 20.00    -0.015 C 
HETATM    6  C7  UNL     1     -33.259   5.364   2.869  1.00 20.00    -0.015 C 
HETATM    7  C8  UNL     1     -34.961   5.947   4.709  1.00 20.00     0.010 C 
HETATM    8  C9  UNL     1     -33.866   3.970   2.695  1.00 20.00     0.010 C 
ENDROOT
BRANCH   4   9
HETATM    9  C11 UNL     1     -31.496   7.768   0.390  1.00 20.00     0.015 C 
BRANCH   9  10
HETATM   10  C12 UNL     1     -31.466   9.276   0.128  1.00 20.00     0.043 C 
HETATM   11  C10 UNL     1     -30.716   9.579  -1.167  1.00 20.00     0.017 C 
BRANCH  10  12
HETATM   12  C1  UNL     1     -32.851   9.889   0.015  1.00 20.00     0.235 C 
HETATM   13  O13 UNL     1     -33.286  10.783   0.734  1.00 20.00    -0.306 OA
ENDBRANCH  10  12
ENDBRANCH   9  10
ENDBRANCH   4   9
TORSDOF 3
