REMARK  1 active torsions:
REMARK  status: ('A' for Active; 'I' for Inactive)
REMARK    1  A    between atoms: C7_7  and  C8_8 
ROOT
HETATM    1  C1  UNL     1     -32.368   9.222   0.250  1.00 20.00     0.064 C 
HETATM    2  C2  UNL     1     -32.423   8.812   2.734  1.00 20.00     0.020 C 
HETATM    3  C3  UNL     1     -33.218   7.024   1.137  1.00 20.00     0.020 C 
HETATM    4  C4  UNL     1     -32.334   7.775   3.855  1.00 20.00     0.015 C 
HETATM    5  C5  UNL     1     -33.130   5.983   2.255  1.00 20.00     0.015 C 
HETATM    6  C6  UNL     1     -32.227   8.174   1.353  1.00 20.00     0.093 C 
HETATM    7  C7  UNL     1     -33.286   6.590   3.654  1.00 20.00     0.093 C 
HETATM    8  N9  UNL     1     -32.476  10.017  -0.587  1.00 20.00    -0.197 NA
ENDROOT
BRANCH   7   9
HETATM    9  C8  UNL     1     -34.684   6.987   3.906  1.00 20.00     0.391 C 
HETATM   10  F10 UNL     1     -34.807   7.471   5.151  1.00 20.00    -0.171 F 
HETATM   11  F11 UNL     1     -35.058   7.933   3.032  1.00 20.00    -0.171 F 
HETATM   12  F12 UNL     1     -35.494   5.926   3.771  1.00 20.00    -0.171 F 
ENDBRANCH   7   9
TORSDOF 1
