REMARK  2 active torsions:
REMARK  status: ('A' for Active; 'I' for Inactive)
REMARK    1  A    between atoms: C5_5  and  C7_7 
REMARK    2  A    between atoms: C6_6  and  S11_11 
ROOT
HETATM    1  C1  UNL     1     -35.267   6.208   3.910  1.00 20.00     0.002 C 
HETATM    2  C2  UNL     1     -34.067   7.153   3.917  1.00 20.00     0.013 C 
HETATM    3  C3  UNL     1     -34.963   4.905   4.647  1.00 20.00     0.015 C 
HETATM    4  C4  UNL     1     -32.505   5.171   4.106  1.00 20.00     0.028 C 
HETATM    5  C5  UNL     1     -32.783   6.501   3.384  1.00 20.00     0.094 C 
HETATM    6  C6  UNL     1     -33.711   4.225   4.086  1.00 20.00     0.045 C 
ENDROOT
BRANCH   5   7
HETATM    7  C7  UNL     1     -32.826   6.323   1.864  1.00 20.00     0.391 C 
HETATM    8  F8  UNL     1     -31.667   5.809   1.429  1.00 20.00    -0.171 F 
HETATM    9  F9  UNL     1     -33.825   5.494   1.528  1.00 20.00    -0.171 F 
HETATM   10  F10 UNL     1     -33.027   7.509   1.270  1.00 20.00    -0.171 F 
ENDBRANCH   5   7
BRANCH   6  11
HETATM   11  S11 UNL     1     -33.333   2.724   5.054  1.00 20.00    -0.177 SA
HETATM   12  H22 UNL     1     -34.495   2.112   4.796  1.00 20.00     0.102 HD
ENDBRANCH   6  11
TORSDOF 2
