REMARK  2 active torsions:
REMARK  status: ('A' for Active; 'I' for Inactive)
REMARK    1  A    between atoms: C4_4  and  C9_9 
REMARK    2  A    between atoms: C9_9  and  C10_10 
ROOT
HETATM    1  C1  UNL     1     -33.029   6.038   1.035  1.00 20.00     0.005 C 
HETATM    2  C2  UNL     1     -32.729   4.891   1.991  1.00 20.00     0.005 C 
HETATM    3  C3  UNL     1     -33.898   7.134   3.181  1.00 20.00     0.009 C 
HETATM    4  C4  UNL     1     -33.286   7.357   1.785  1.00 20.00    -0.013 C 
HETATM    5  C5  UNL     1     -33.904   4.602   2.950  1.00 20.00    -0.015 C 
HETATM    6  C6  UNL     1     -34.764   5.869   3.220  1.00 20.00    -0.015 C 
HETATM    7  C7  UNL     1     -33.361   3.917   4.208  1.00 20.00     0.010 C 
HETATM    8  C8  UNL     1     -35.585   5.808   4.508  1.00 20.00     0.010 C 
ENDROOT
BRANCH   4   9
HETATM    9  C9  UNL     1     -32.012   8.196   1.895  1.00 20.00     0.020 C 
BRANCH   9  10
HETATM   10  C10 UNL     1     -31.647   8.906   0.600  1.00 20.00     0.115 C 
HETATM   11 CL11 UNL     1     -32.914  10.040   0.077  1.00 20.00    -0.130 Cl
ENDBRANCH   9  10
ENDBRANCH   4   9
TORSDOF 2
