REMARK  1 active torsions:
REMARK  status: ('A' for Active; 'I' for Inactive)
REMARK    1  A    between atoms: C7_7  and  C8_8 
ROOT
HETATM    1  C1  UNL     1     -32.387   9.501   0.404  1.00 20.00     0.064 C 
HETATM    2  C2  UNL     1     -32.764   6.341   0.272  1.00 20.00     0.002 C 
HETATM    3  C3  UNL     1     -31.464   7.138   0.345  1.00 20.00     0.019 C 
HETATM    4  C4  UNL     1     -33.333   6.061   1.661  1.00 20.00     0.013 C 
HETATM    5  C5  UNL     1     -32.204   8.145   2.543  1.00 20.00     0.032 C 
HETATM    6  C6  UNL     1     -31.596   8.431   1.161  1.00 20.00     0.093 C 
HETATM    7  C7  UNL     1     -33.515   7.348   2.473  1.00 20.00     0.095 C 
HETATM    8  N9  UNL     1     -32.987  10.311  -0.170  1.00 20.00    -0.197 NA
ENDROOT
BRANCH   7   9
HETATM    9  C8  UNL     1     -33.991   7.030   3.831  1.00 20.00     0.391 C 
HETATM   10  F10 UNL     1     -35.152   6.363   3.763  1.00 20.00    -0.171 F 
HETATM   11  F11 UNL     1     -33.087   6.272   4.465  1.00 20.00    -0.171 F 
HETATM   12  F12 UNL     1     -34.177   8.162   4.525  1.00 20.00    -0.171 F 
ENDBRANCH   7   9
TORSDOF 1
