REMARK  4 active torsions:
REMARK  status: ('A' for Active; 'I' for Inactive)
REMARK    1  A    between atoms: C2_2  and  C6_6 
REMARK    2  A    between atoms: C6_6  and  C8_8 
REMARK    3  A    between atoms: C7_7  and  C8_8 
REMARK    4  A    between atoms: C7_7  and  C9_9 
ROOT
HETATM    1  C1  UNL     1     -32.339   9.316   0.848  1.00 20.00    -0.111 C 
HETATM    2  C2  UNL     1     -32.119   8.198   1.229  1.00 20.00    -0.107 C 
HETATM    3  C3  UNL     1     -32.607  10.675   0.383  1.00 20.00     0.112 C 
ENDROOT
BRANCH   2   4
HETATM    4  C6  UNL     1     -31.843   6.830   1.693  1.00 20.00     0.098 C 
BRANCH   4   5
HETATM    5  C8  UNL     1     -32.979   5.834   1.388  1.00 20.00    -0.006 C 
HETATM    6  C4  UNL     1     -32.582   4.406   1.790  1.00 20.00     0.011 C 
BRANCH   5   7
HETATM    7  C7  UNL     1     -34.342   6.192   2.028  1.00 20.00     0.020 C 
BRANCH   7   8
HETATM    8  C9  UNL     1     -34.382   6.210   3.560  1.00 20.00     0.054 C 
HETATM    9  C5  UNL     1     -35.813   6.146   4.079  1.00 20.00     0.022 C 
HETATM   10 BR10 UNL     1     -33.571   7.859   4.242  1.00 20.00    -0.092 Br
ENDBRANCH   7   8
ENDBRANCH   5   7
ENDBRANCH   4   5
ENDBRANCH   2   4
TORSDOF 4
