REMARK  1 active torsions:
REMARK  status: ('A' for Active; 'I' for Inactive)
REMARK    1  A    between atoms: C6_6  and  C8_8 
ROOT
HETATM    1  C1  UNL     1     -33.805   7.647   3.865  1.00 20.00     0.016 C 
HETATM    2  C2  UNL     1     -33.024   6.094   2.021  1.00 20.00     0.016 C 
HETATM    3  C3  UNL     1     -34.866   6.626   4.280  1.00 20.00     0.041 C 
HETATM    4  C4  UNL     1     -34.083   5.070   2.430  1.00 20.00     0.041 C 
HETATM    5  C5  UNL     1     -33.923   4.275   4.912  1.00 20.00     0.207 A 
HETATM    6  C6  UNL     1     -33.462   7.528   2.369  1.00 20.00     0.093 C 
HETATM    7  C7  UNL     1     -34.437   5.247   3.876  1.00 20.00     0.082 A 
HETATM    8  O9  UNL     1     -35.264   4.202   4.406  1.00 20.00    -0.375 OA
ENDROOT
BRANCH   6   9
HETATM    9  C8  UNL     1     -32.374   8.530   1.987  1.00 20.00     0.391 C 
HETATM   10  F10 UNL     1     -32.781   9.778   2.264  1.00 20.00    -0.171 F 
HETATM   11  F11 UNL     1     -31.252   8.275   2.677  1.00 20.00    -0.171 F 
HETATM   12  F12 UNL     1     -32.108   8.440   0.675  1.00 20.00    -0.171 F 
ENDBRANCH   6   9
TORSDOF 1
