REMARK  5 active torsions:
REMARK  status: ('A' for Active; 'I' for Inactive)
REMARK    1  A    between atoms: C6_6  and  C7_7 
REMARK    2  A    between atoms: C6_6  and  C9_9 
REMARK    3  A    between atoms: C7_7  and  C11_11 
REMARK    4  A    between atoms: C8_8  and  C10_10 
REMARK    5  A    between atoms: C8_8  and  C11_11 
ROOT
HETATM    1  C4  UNL     1     -31.530   6.523   2.950  1.00 20.00     0.015 C 
HETATM    2  C5  UNL     1     -31.986   5.436   0.767  1.00 20.00     0.015 C 
HETATM    3  C11 UNL     1     -32.597   6.358   1.841  1.00 20.00    -0.046 C 
ENDROOT
BRANCH   3   4
HETATM    4  C7  UNL     1     -32.880   7.737   1.178  1.00 20.00     0.009 C 
BRANCH   4   5
HETATM    5  C6  UNL     1     -31.644   8.597   0.872  1.00 20.00     0.004 C 
BRANCH   5   6
HETATM    6  C9  UNL     1     -31.983   9.909   0.136  1.00 20.00    -0.023 C 
HETATM    7  C1  UNL     1     -32.927  10.805   0.940  1.00 20.00     0.009 C 
HETATM    8  C2  UNL     1     -32.608   9.593  -1.225  1.00 20.00     0.009 C 
ENDBRANCH   5   6
ENDBRANCH   4   5
ENDBRANCH   3   4
BRANCH   3   9
HETATM    9  C8  UNL     1     -33.857   5.715   2.500  1.00 20.00     0.028 C 
BRANCH   9  10
HETATM   10  C10 UNL     1     -34.201   6.100   3.951  1.00 20.00     0.079 C 
HETATM   11  C3  UNL     1     -34.571   7.580   4.041  1.00 20.00     0.026 C 
HETATM   12 CL12 UNL     1     -35.579   5.150   4.581  1.00 20.00    -0.125 Cl
ENDBRANCH   9  10
ENDBRANCH   3   9
TORSDOF 5
