REMARK  5 active torsions:
REMARK  status: ('A' for Active; 'I' for Inactive)
REMARK    1  A    between atoms: C6_6  and  C7_7 
REMARK    2  A    between atoms: C7_7  and  C10_10 
REMARK    3  A    between atoms: C8_8  and  C9_9 
REMARK    4  A    between atoms: C8_8  and  C10_10 
REMARK    5  A    between atoms: C9_9  and  O11_11 
ROOT
HETATM    1  C1  UNL     1     -32.196   9.633  -0.428  1.00 20.00     0.012 C 
HETATM    2  C2  UNL     1     -32.278   8.964   0.566  1.00 20.00    -0.117 C 
HETATM    3  C6  UNL     1     -32.375   8.144   1.784  1.00 20.00     0.093 C 
ENDROOT
BRANCH   3   4
HETATM    4  C7  UNL     1     -33.842   7.896   2.159  1.00 20.00     0.021 C 
BRANCH   4   5
HETATM    5  C10 UNL     1     -34.082   7.094   3.471  1.00 20.00    -0.045 C 
HETATM    6  C4  UNL     1     -35.596   6.963   3.751  1.00 20.00     0.015 C 
HETATM    7  C5  UNL     1     -33.437   7.814   4.668  1.00 20.00     0.015 C 
BRANCH   5   8
HETATM    8  C8  UNL     1     -33.524   5.640   3.316  1.00 20.00     0.040 C 
BRANCH   8   9
HETATM    9  C9  UNL     1     -33.622   4.708   4.534  1.00 20.00     0.114 C 
HETATM   10  C3  UNL     1     -32.591   3.587   4.438  1.00 20.00     0.039 C 
BRANCH   9  11
HETATM   11  O11 UNL     1     -34.914   4.114   4.587  1.00 20.00    -0.396 OA
HETATM   12  H29 UNL     1     -34.929   3.549   5.375  1.00 20.00     0.210 HD
ENDBRANCH   9  11
ENDBRANCH   8   9
ENDBRANCH   5   8
ENDBRANCH   4   5
ENDBRANCH   3   4
TORSDOF 5
