REMARK  2 active torsions:
REMARK  status: ('A' for Active; 'I' for Inactive)
REMARK    1  A    between atoms: C1_1  and  C10_10 
REMARK    2  A    between atoms: C5_5  and  C10_10 
ROOT
HETATM    1  C2  UNL     1     -31.972   7.012   1.577  1.00 20.00     0.005 C 
HETATM    2  C3  UNL     1     -33.014   5.963   1.187  1.00 20.00     0.005 C 
HETATM    3  C4  UNL     1     -33.497   7.826   3.429  1.00 20.00     0.009 C 
HETATM    4  C5  UNL     1     -32.583   8.239   2.266  1.00 20.00    -0.008 C 
HETATM    5  C6  UNL     1     -33.901   5.531   2.367  1.00 20.00    -0.015 C 
HETATM    6  C7  UNL     1     -34.545   6.771   3.034  1.00 20.00    -0.015 C 
HETATM    7  C8  UNL     1     -33.117   4.639   3.339  1.00 20.00     0.010 C 
HETATM    8  C9  UNL     1     -35.418   6.411   4.238  1.00 20.00     0.010 C 
ENDROOT
BRANCH   4   9
HETATM    9  C10 UNL     1     -33.312   9.142   1.267  1.00 20.00     0.074 C 
BRANCH   9  10
HETATM   10  C1  UNL     1     -32.415   9.601   0.150  1.00 20.00     0.231 C 
HETATM   11  O11 UNL     1     -32.607   9.390  -1.042  1.00 20.00    -0.307 OA
ENDBRANCH   9  10
ENDBRANCH   4   9
TORSDOF 2
