REMARK  2 active torsions:
REMARK  status: ('A' for Active; 'I' for Inactive)
REMARK    1  A    between atoms: C8_8  and  C11_11 
REMARK    2  A    between atoms: C8_8  and  O12_12 
ROOT
HETATM    1  C1  UNL     1     -31.995   9.677  -0.303  1.00 20.00     0.012 C 
HETATM    2  C2  UNL     1     -32.260   8.539  -0.023  1.00 20.00    -0.115 C 
HETATM    3  C11 UNL     1     -32.582   7.149   0.301  1.00 20.00     0.131 C 
ENDROOT
BRANCH   3   4
HETATM    4  C8  UNL     1     -32.744   6.965   1.814  1.00 20.00     0.069 C 
HETATM    5  C4  UNL     1     -33.879   7.861   2.342  1.00 20.00     0.043 C 
HETATM    6  C6  UNL     1     -34.249   7.625   3.817  1.00 20.00    -0.015 C 
HETATM    7  C3  UNL     1     -34.460   6.131   4.103  1.00 20.00     0.008 C 
HETATM    8  C9  UNL     1     -33.249   8.254   4.790  1.00 20.00     0.010 C 
HETATM    9  C7  UNL     1     -33.291   5.256   3.633  1.00 20.00    -0.015 C 
HETATM   10  C5  UNL     1     -33.006   5.487   2.141  1.00 20.00     0.043 C 
HETATM   11  C10 UNL     1     -33.591   3.779   3.896  1.00 20.00     0.010 C 
BRANCH   4  12
HETATM   12  O12 UNL     1     -31.506   7.342   2.419  1.00 20.00    -0.389 OA
HETATM   13  H30 UNL     1     -30.832   6.751   2.053  1.00 20.00     0.210 HD
ENDBRANCH   4  12
ENDBRANCH   3   4
TORSDOF 2
