REMARK  2 active torsions:
REMARK  status: ('A' for Active; 'I' for Inactive)
REMARK    1  A    between atoms: C1_1  and  C5_5 
REMARK    2  A    between atoms: C1_1  and  C11_11 
ROOT
HETATM    1  C2  UNL     1     -33.114   6.210   1.272  1.00 20.00     0.012 C 
HETATM    2  C3  UNL     1     -33.577   5.160   2.276  1.00 20.00     0.005 C 
HETATM    3  C4  UNL     1     -33.312   7.992   3.044  1.00 20.00     0.016 C 
HETATM    4  C5  UNL     1     -32.418   7.375   1.970  1.00 20.00     0.056 C 
HETATM    5  C6  UNL     1     -34.486   5.762   3.363  1.00 20.00    -0.015 C 
HETATM    6  C7  UNL     1     -33.783   6.947   4.070  1.00 20.00    -0.014 C 
HETATM    7  C8  UNL     1     -34.904   4.659   4.340  1.00 20.00     0.010 C 
HETATM    8  C9  UNL     1     -34.681   7.625   5.109  1.00 20.00     0.010 C 
ENDROOT
BRANCH   4   9
HETATM    9  C1  UNL     1     -32.053   8.425   0.966  1.00 20.00     0.130 C 
HETATM   10  O12 UNL     1     -31.313   8.167   0.018  1.00 20.00    -0.298 OA
BRANCH   9  11
HETATM   11  C11 UNL     1     -32.648   9.803   1.194  1.00 20.00     0.074 C 
HETATM   12  C10 UNL     1     -32.205  10.811   0.150  1.00 20.00     0.013 C 
ENDBRANCH   9  11
ENDBRANCH   4   9
TORSDOF 2
