REMARK  3 active torsions:
REMARK  status: ('A' for Active; 'I' for Inactive)
REMARK    1  A    between atoms: C2_2  and  C3_3 
REMARK    2  A    between atoms: C2_2  and  S8_8 
REMARK    3  A    between atoms: C3_3  and  C4_4 
ROOT
HETATM    1  C3  UNL     1     -32.590   6.885   2.770  1.00 20.00     0.174 C 
HETATM    2 BR9  UNL     1     -32.729   5.423   1.451  1.00 20.00    -0.081 Br
ENDROOT
BRANCH   1   3
HETATM    3  C2  UNL     1     -32.027   8.106   2.043  1.00 20.00     0.098 C 
BRANCH   3   4
HETATM    4  S8  UNL     1     -33.064   8.637   0.647  1.00 20.00    -0.172 SA
HETATM    5  C1  UNL     1     -32.093  10.073   0.134  1.00 20.00     0.089 C 
ENDBRANCH   3   4
ENDBRANCH   1   3
BRANCH   1   6
HETATM    6  C4  UNL     1     -33.966   7.081   3.384  1.00 20.00     0.401 C 
HETATM    7  F5  UNL     1     -33.940   7.965   4.405  1.00 20.00    -0.170 F 
HETATM    8  F6  UNL     1     -34.461   5.915   3.858  1.00 20.00    -0.170 F 
HETATM    9  F7  UNL     1     -34.853   7.539   2.473  1.00 20.00    -0.170 F 
ENDBRANCH   1   6
TORSDOF 3
