REMARK  0 active torsions:
REMARK  status: ('A' for Active; 'I' for Inactive)
ROOT
HETATM    1  C1  UNL     1     -32.307   9.378  -0.148  1.00 20.00     0.088 C 
HETATM    2  C2  UNL     1     -32.262   7.438   1.278  1.00 20.00    -0.070 C 
HETATM    3  C3  UNL     1     -32.179   7.982   0.055  1.00 20.00     0.096 C 
HETATM    4  C4  UNL     1     -32.495   8.273   2.511  1.00 20.00     0.035 C 
HETATM    5  C5  UNL     1     -32.175   5.958   1.513  1.00 20.00     0.039 C 
HETATM    6  C6  UNL     1     -33.187   7.480   3.629  1.00 20.00     0.009 C 
HETATM    7  C7  UNL     1     -33.461   5.402   2.168  1.00 20.00    -0.011 C 
HETATM    8  C8  UNL     1     -34.182   6.456   3.063  1.00 20.00    -0.014 C 
HETATM    9  C9  UNL     1     -33.120   4.086   2.878  1.00 20.00     0.010 C 
HETATM   10  C10 UNL     1     -35.044   5.861   4.177  1.00 20.00     0.010 C 
HETATM   11  N11 UNL     1     -32.411  10.521  -0.323  1.00 20.00    -0.192 NA
ENDROOT
TORSDOF 0
