REMARK  0 active torsions:
REMARK  status: ('A' for Active; 'I' for Inactive)
ROOT
HETATM    1  C1  UNL     1     -32.941  10.336   0.132  1.00 20.00     0.088 C 
HETATM    2  C2  UNL     1     -32.242   8.450   1.457  1.00 20.00    -0.070 C 
HETATM    3  C3  UNL     1     -32.210   9.134   0.305  1.00 20.00     0.096 C 
HETATM    4  C4  UNL     1     -33.055   8.916   2.638  1.00 20.00     0.035 C 
HETATM    5  C5  UNL     1     -31.507   7.152   1.647  1.00 20.00     0.039 C 
HETATM    6  C6  UNL     1     -33.357   7.780   3.623  1.00 20.00     0.009 C 
HETATM    7  C7  UNL     1     -32.466   6.001   2.019  1.00 20.00    -0.011 C 
HETATM    8  C8  UNL     1     -33.668   6.467   2.889  1.00 20.00    -0.014 C 
HETATM    9  C9  UNL     1     -32.969   5.284   0.760  1.00 20.00     0.010 C 
HETATM   10  C10 UNL     1     -34.080   5.381   3.885  1.00 20.00     0.010 C 
HETATM   11  N11 UNL     1     -33.537  11.321  -0.016  1.00 20.00    -0.192 NA
ENDROOT
TORSDOF 0
