REMARK  5 active torsions:
REMARK  status: ('A' for Active; 'I' for Inactive)
REMARK    1  A    between atoms: C6_6  and  C7_7 
REMARK    2  A    between atoms: C6_6  and  C9_9 
REMARK    3  A    between atoms: C7_7  and  C11_11 
REMARK    4  A    between atoms: C8_8  and  C9_9 
REMARK    5  A    between atoms: C8_8  and  C10_10 
ROOT
HETATM    1  C6  UNL     1     -32.795   7.487   2.157  1.00 20.00     0.005 C 
ENDROOT
BRANCH   1   2
HETATM    2  C7  UNL     1     -33.466   8.235   0.994  1.00 20.00     0.008 C 
BRANCH   2   3
HETATM    3  C11 UNL     1     -32.581   9.285   0.268  1.00 20.00    -0.051 C 
HETATM    4  C3  UNL     1     -33.020   9.472  -1.194  1.00 20.00     0.014 C 
HETATM    5  C4  UNL     1     -31.097   8.883   0.304  1.00 20.00     0.014 C 
HETATM    6  C5  UNL     1     -32.741  10.633   0.998  1.00 20.00     0.014 C 
ENDBRANCH   2   3
ENDBRANCH   1   2
BRANCH   1   7
HETATM    7  C9  UNL     1     -33.738   6.505   2.888  1.00 20.00    -0.017 C 
HETATM    8  C1  UNL     1     -34.670   7.229   3.868  1.00 20.00     0.010 C 
BRANCH   7   9
HETATM    9  C8  UNL     1     -32.950   5.421   3.665  1.00 20.00     0.024 C 
BRANCH   9  10
HETATM   10  C10 UNL     1     -33.667   4.079   3.886  1.00 20.00     0.078 C 
HETATM   11  C2  UNL     1     -34.596   4.152   5.094  1.00 20.00     0.026 C 
HETATM   12 CL12 UNL     1     -32.493   2.754   4.141  1.00 20.00    -0.125 Cl
ENDBRANCH   9  10
ENDBRANCH   7   9
ENDBRANCH   1   7
TORSDOF 5
