REMARK  3 active torsions:
REMARK  status: ('A' for Active; 'I' for Inactive)
REMARK    1  A    between atoms: C5_5  and  C7_7 
REMARK    2  A    between atoms: C6_6  and  C7_7 
REMARK    3  A    between atoms: C6_6  and  C8_8 
ROOT
HETATM    1  C1  UNL     1     -32.589   9.796   0.861  1.00 20.00     0.012 C 
HETATM    2  C2  UNL     1     -32.215   8.754   1.326  1.00 20.00    -0.117 C 
HETATM    3  C5  UNL     1     -31.751   7.481   1.896  1.00 20.00     0.097 C 
ENDROOT
BRANCH   3   4
HETATM    4  C7  UNL     1     -32.725   6.309   1.669  1.00 20.00    -0.006 C 
HETATM    5  C3  UNL     1     -32.864   5.981   0.176  1.00 20.00     0.011 C 
BRANCH   4   6
HETATM    6  C6  UNL     1     -34.127   6.517   2.289  1.00 20.00     0.025 C 
BRANCH   6   7
HETATM    7  C8  UNL     1     -34.202   6.446   3.822  1.00 20.00     0.078 C 
HETATM    8  C4  UNL     1     -35.641   6.248   4.288  1.00 20.00     0.026 C 
HETATM    9 CL9  UNL     1     -33.556   7.937   4.569  1.00 20.00    -0.125 Cl
ENDBRANCH   6   7
ENDBRANCH   4   6
ENDBRANCH   3   4
TORSDOF 3
