REMARK  4 active torsions:
REMARK  status: ('A' for Active; 'I' for Inactive)
REMARK    1  A    between atoms: C2_2  and  C7_7 
REMARK    2  A    between atoms: C3_3  and  C8_8 
REMARK    3  A    between atoms: C7_7  and  C9_9 
REMARK    4  A    between atoms: C8_8  and  C9_9 
ROOT
HETATM    1  C1  UNL     1     -32.619   9.920   0.177  1.00 20.00    -0.111 C 
HETATM    2  C2  UNL     1     -32.247   8.968   0.808  1.00 20.00    -0.107 C 
HETATM    3  C4  UNL     1     -33.074  11.078  -0.592  1.00 20.00     0.112 C 
ENDROOT
BRANCH   2   4
HETATM    4  C7  UNL     1     -31.789   7.805   1.582  1.00 20.00     0.098 C 
BRANCH   4   5
HETATM    5  C9  UNL     1     -32.692   6.564   1.432  1.00 20.00    -0.001 C 
HETATM    6  C6  UNL     1     -32.700   6.048  -0.013  1.00 20.00     0.011 C 
BRANCH   5   7
HETATM    7  C8  UNL     1     -34.120   6.835   1.939  1.00 20.00     0.083 C 
BRANCH   7   8
HETATM    8  C3  UNL     1     -34.247   6.823   3.456  1.00 20.00     0.123 C 
HETATM    9  C5  UNL     1     -35.170   5.782   4.034  1.00 20.00     0.091 C 
HETATM   10  O10 UNL     1     -33.665   7.625   4.184  1.00 20.00    -0.298 OA
ENDBRANCH   7   8
ENDBRANCH   5   7
ENDBRANCH   4   5
ENDBRANCH   2   4
TORSDOF 4
