REMARK  2 active torsions:
REMARK  status: ('A' for Active; 'I' for Inactive)
REMARK    1  A    between atoms: C5_5  and  C6_6 
REMARK    2  A    between atoms: C6_6  and  C7_7 
ROOT
HETATM    1  C1  UNL     1     -33.902   5.533   3.329  1.00 20.00     0.027 C 
HETATM    2  C2  UNL     1     -33.205   6.462   2.340  1.00 20.00     0.009 C 
HETATM    3  C3  UNL     1     -35.098   6.226   3.968  1.00 20.00     0.167 C 
HETATM    4  C4  UNL     1     -34.157   8.378   3.654  1.00 20.00     0.172 C 
HETATM    5  C5  UNL     1     -32.896   7.813   2.996  1.00 20.00     0.010 C 
HETATM    6  O8  UNL     1     -34.700   7.446   4.591  1.00 20.00    -0.391 OA
ENDROOT
BRANCH   5   7
HETATM    7  C6  UNL     1     -32.314   8.795   1.986  1.00 20.00     0.021 C 
BRANCH   7   8
HETATM    8  C7  UNL     1     -33.210   9.018   0.775  1.00 20.00     0.115 C 
HETATM    9 CL9  UNL     1     -32.487  10.149  -0.393  1.00 20.00    -0.130 Cl
ENDBRANCH   7   8
ENDBRANCH   5   7
TORSDOF 2
