REMARK  2 active torsions:
REMARK  status: ('A' for Active; 'I' for Inactive)
REMARK    1  A    between atoms: C5_5  and  C6_6 
REMARK    2  A    between atoms: C6_6  and  C7_7 
ROOT
HETATM    1  C1  UNL     1     -34.459   7.413   3.752  1.00 20.00     0.027 C 
HETATM    2  C2  UNL     1     -33.109   7.846   3.188  1.00 20.00     0.009 C 
HETATM    3  C3  UNL     1     -34.623   5.903   3.658  1.00 20.00     0.167 C 
HETATM    4  C4  UNL     1     -33.148   5.748   1.810  1.00 20.00     0.172 C 
HETATM    5  C5  UNL     1     -32.896   7.258   1.788  1.00 20.00     0.010 C 
HETATM    6  O8  UNL     1     -34.454   5.460   2.312  1.00 20.00    -0.391 OA
ENDROOT
BRANCH   5   7
HETATM    7  C6  UNL     1     -31.500   7.576   1.264  1.00 20.00     0.017 C 
BRANCH   7   8
HETATM    8  C7  UNL     1     -31.297   9.073   1.132  1.00 20.00     0.085 C 
HETATM    9 BR9  UNL     1     -32.571   9.796  -0.150  1.00 20.00    -0.096 Br
ENDBRANCH   7   8
ENDBRANCH   5   7
TORSDOF 2
