REMARK  4 active torsions:
REMARK  status: ('A' for Active; 'I' for Inactive)
REMARK    1  A    between atoms: C1_1  and  C8_8 
REMARK    2  A    between atoms: C1_1  and  C9_9 
REMARK    3  A    between atoms: C4_4  and  C8_8 
REMARK    4  A    between atoms: C9_9  and  C10_10 
ROOT
HETATM    1  C1  UNL     1     -32.569   6.527   1.588  1.00 20.00     0.128 C 
HETATM    2  O11 UNL     1     -32.017   5.429   1.522  1.00 20.00    -0.298 OA
ENDROOT
BRANCH   1   3
HETATM    3  C8  UNL     1     -31.801   7.830   1.464  1.00 20.00     0.082 C 
BRANCH   3   4
HETATM    4  C4  UNL     1     -32.279   8.707   0.351  1.00 20.00    -0.008 A 
HETATM    5  C2  UNL     1     -33.366   9.717   0.595  1.00 20.00     0.005 A 
HETATM    6  C3  UNL     1     -31.955  10.175   0.351  1.00 20.00     0.005 A 
ENDBRANCH   3   4
ENDBRANCH   1   3
BRANCH   1   7
HETATM    7  C9  UNL     1     -34.069   6.640   1.818  1.00 20.00     0.086 C 
BRANCH   7   8
HETATM    8  C10 UNL     1     -34.508   6.614   3.300  1.00 20.00    -0.045 C 
HETATM    9  C5  UNL     1     -36.037   6.701   3.432  1.00 20.00     0.015 C 
HETATM   10  C6  UNL     1     -33.863   7.763   4.092  1.00 20.00     0.015 C 
HETATM   11  C7  UNL     1     -34.044   5.277   3.911  1.00 20.00     0.015 C 
ENDBRANCH   7   8
ENDBRANCH   1   7
TORSDOF 4
