REMARK  4 active torsions:
REMARK  status: ('A' for Active; 'I' for Inactive)
REMARK    1  A    between atoms: C3_3  and  C4_4 
REMARK    2  A    between atoms: C4_4  and  C5_5 
REMARK    3  A    between atoms: C5_5  and  C6_6 
REMARK    4  A    between atoms: C5_5  and  O7_7 
ROOT
HETATM    1  C5  UNL     1     -32.394   7.879   3.579  1.00 20.00     0.226 C 
ENDROOT
BRANCH   1   2
HETATM    2  C4  UNL     1     -33.852   7.676   3.998  1.00 20.00     0.045 C 
BRANCH   2   3
HETATM    3  C3  UNL     1     -34.465   6.473   3.344  1.00 20.00    -0.012 A 
HETATM    4  C1  UNL     1     -34.380   5.125   4.006  1.00 20.00     0.005 A 
HETATM    5  C2  UNL     1     -35.699   5.842   3.928  1.00 20.00     0.005 A 
ENDBRANCH   2   3
ENDBRANCH   1   2
BRANCH   1   6
HETATM    6  C6  UNL     1     -32.270   8.129   2.088  1.00 20.00     0.413 C 
HETATM    7  F8  UNL     1     -32.700   7.071   1.369  1.00 20.00    -0.168 F 
HETATM    8  F9  UNL     1     -30.988   8.372   1.741  1.00 20.00    -0.168 F 
HETATM    9  F10 UNL     1     -33.001   9.204   1.720  1.00 20.00    -0.168 F 
ENDBRANCH   1   6
BRANCH   1  10
HETATM   10  O7  UNL     1     -31.871   9.010   4.272  1.00 20.00    -0.387 OA
HETATM   11  H19 UNL     1     -31.941   8.810   5.218  1.00 20.00     0.210 HD
ENDBRANCH   1  10
TORSDOF 4
