REMARK  4 active torsions:
REMARK  status: ('A' for Active; 'I' for Inactive)
REMARK    1  A    between atoms: C5_5  and  C7_7 
REMARK    2  A    between atoms: C6_6  and  C8_8 
REMARK    3  A    between atoms: C7_7  and  C8_8 
REMARK    4  A    between atoms: C8_8  and  O9_9 
ROOT
HETATM    1  C8  UNL     1     -32.123   7.729   1.603  1.00 20.00     0.122 C 
ENDROOT
BRANCH   1   2
HETATM    2  C6  UNL     1     -32.847   8.665   0.645  1.00 20.00     0.014 A 
HETATM    3  C3  UNL     1     -32.715  10.155   0.797  1.00 20.00     0.007 A 
HETATM    4  C4  UNL     1     -32.070   9.459  -0.368  1.00 20.00     0.007 A 
ENDBRANCH   1   2
BRANCH   1   5
HETATM    5  C7  UNL     1     -32.602   7.930   3.042  1.00 20.00     0.036 C 
BRANCH   5   6
HETATM    6  C5  UNL     1     -34.101   7.701   3.188  1.00 20.00    -0.012 A 
HETATM    7  C1  UNL     1     -34.631   6.329   3.500  1.00 20.00     0.005 A 
HETATM    8  C2  UNL     1     -34.695   7.414   4.539  1.00 20.00     0.005 A 
ENDBRANCH   5   6
ENDBRANCH   1   5
BRANCH   1   9
HETATM    9  O9  UNL     1     -32.375   6.383   1.210  1.00 20.00    -0.395 OA
HETATM   10  H23 UNL     1     -32.036   6.290   0.306  1.00 20.00     0.210 HD
ENDBRANCH   1   9
TORSDOF 4
