REMARK  1 active torsions:
REMARK  status: ('A' for Active; 'I' for Inactive)
REMARK    1  A    between atoms: C5_5  and  C9_9 
ROOT
HETATM    1  C1  UNL     1     -32.300  10.259  -0.118  1.00 20.00     0.012 C 
HETATM    2  C2  UNL     1     -32.209   9.090   0.138  1.00 20.00    -0.117 C 
HETATM    3  C9  UNL     1     -32.091   7.661   0.443  1.00 20.00     0.098 C 
ENDROOT
BRANCH   3   4
HETATM    4  C5  UNL     1     -33.132   7.231   1.464  1.00 20.00     0.002 C 
HETATM    5  C3  UNL     1     -33.022   7.997   2.791  1.00 20.00     0.007 C 
HETATM    6  C4  UNL     1     -33.528   7.042   3.877  1.00 20.00     0.021 C 
HETATM    7  C7  UNL     1     -34.003   5.799   3.128  1.00 20.00     0.086 C 
HETATM    8  C6  UNL     1     -33.118   5.742   1.872  1.00 20.00     0.005 C 
HETATM    9 CL10 UNL     1     -33.977   4.348   4.142  1.00 20.00    -0.125 Cl
HETATM   10  C8  UNL     1     -31.711   5.181   2.104  1.00 20.00     0.012 C 
ENDBRANCH   3   4
TORSDOF 1
