REMARK  2 active torsions:
REMARK  status: ('A' for Active; 'I' for Inactive)
REMARK    1  A    between atoms: C5_5  and  C9_9 
REMARK    2  A    between atoms: C9_9  and  C10_10 
ROOT
HETATM    1  C1  UNL     1     -34.488   5.538   3.751  1.00 20.00     0.131 C 
HETATM    2  C2  UNL     1     -33.496   4.527   3.235  1.00 20.00     0.079 C 
HETATM    3  C3  UNL     1     -32.950   5.225   1.996  1.00 20.00     0.013 C 
HETATM    4  C4  UNL     1     -34.357   6.876   3.050  1.00 20.00     0.055 C 
HETATM    5  C5  UNL     1     -32.999   6.714   2.346  1.00 20.00    -0.003 C 
HETATM    6  C6  UNL     1     -34.398   8.045   4.017  1.00 20.00     0.018 C 
HETATM    7  O11 UNL     1     -35.299   5.298   4.637  1.00 20.00    -0.298 OA
ENDROOT
BRANCH   5   8
HETATM    8  C9  UNL     1     -32.850   7.601   1.119  1.00 20.00     0.009 C 
BRANCH   8   9
HETATM    9  C10 UNL     1     -32.487   9.059   1.453  1.00 20.00    -0.022 C 
HETATM   10  C7  UNL     1     -31.162   9.171   2.208  1.00 20.00     0.009 C 
HETATM   11  C8  UNL     1     -32.420   9.886   0.167  1.00 20.00     0.009 C 
ENDBRANCH   8   9
ENDBRANCH   5   8
TORSDOF 2
