REMARK  1 active torsions:
REMARK  status: ('A' for Active; 'I' for Inactive)
REMARK    1  A    between atoms: C7_7  and  C9_9 
ROOT
HETATM    1  C1  UNL     1     -32.738  10.040   0.767  1.00 20.00     0.012 C 
HETATM    2  C2  UNL     1     -32.400   9.000   1.263  1.00 20.00    -0.117 C 
HETATM    3  C9  UNL     1     -31.980   7.731   1.869  1.00 20.00     0.098 C 
ENDROOT
BRANCH   3   4
HETATM    4  C7  UNL     1     -33.181   6.885   2.263  1.00 20.00     0.008 C 
HETATM    5  C5  UNL     1     -34.077   7.588   3.285  1.00 20.00     0.013 C 
HETATM    6  C4  UNL     1     -34.963   6.479   3.838  1.00 20.00     0.079 C 
HETATM    7  C3  UNL     1     -34.049   5.283   3.765  1.00 20.00     0.131 C 
HETATM    8  C6  UNL     1     -32.794   5.572   2.964  1.00 20.00     0.056 C 
HETATM    9  O10 UNL     1     -34.300   4.207   4.293  1.00 20.00    -0.298 OA
HETATM   10  C8  UNL     1     -32.452   4.453   1.998  1.00 20.00     0.018 C 
ENDBRANCH   3   4
TORSDOF 1
