REMARK  1 active torsions:
REMARK  status: ('A' for Active; 'I' for Inactive)
REMARK    1  A    between atoms: C6_6  and  N9_9 
ROOT
HETATM    1  C1  UNL     1     -32.330   8.676   0.911  1.00 20.00     0.158 C 
HETATM    2  N9  UNL     1     -32.276   7.983   1.858  1.00 20.00    -0.270 NA
HETATM    3  S10 UNL     1     -32.373   9.620  -0.371  1.00 20.00    -0.055 SA
ENDROOT
BRANCH   2   4
HETATM    4  C6  UNL     1     -33.556   7.397   2.265  1.00 20.00     0.113 C 
HETATM    5  C3  UNL     1     -33.888   7.831   3.697  1.00 20.00     0.028 C 
HETATM    6  C2  UNL     1     -33.693   6.588   4.555  1.00 20.00     0.007 C 
HETATM    7  C4  UNL     1     -34.092   5.451   3.618  1.00 20.00    -0.013 C 
HETATM    8  C5  UNL     1     -33.421   5.863   2.299  1.00 20.00     0.010 C 
HETATM    9  C7  UNL     1     -33.651   4.089   4.132  1.00 20.00     0.010 C 
HETATM   10  C8  UNL     1     -34.042   5.199   1.076  1.00 20.00     0.012 C 
ENDBRANCH   2   4
TORSDOF 1
