REMARK  1 active torsions:
REMARK  status: ('A' for Active; 'I' for Inactive)
REMARK    1  A    between atoms: C4_4  and  C7_7 
ROOT
HETATM    1  C5  UNL     1     -33.754   7.698   3.465  1.00 20.00     0.011 C 
HETATM    2  C6  UNL     1     -34.614   6.440   3.328  1.00 20.00     0.021 C 
HETATM    3  C7  UNL     1     -32.704   7.624   2.332  1.00 20.00     0.025 C 
HETATM    4  C8  UNL     1     -33.029   6.320   1.562  1.00 20.00     0.008 C 
HETATM    5  C9  UNL     1     -33.726   5.433   2.604  1.00 20.00     0.086 C 
HETATM    6  C10 UNL     1     -31.817   5.702   0.873  1.00 20.00     0.012 C 
HETATM    7 CL12 UNL     1     -32.596   4.667   3.758  1.00 20.00    -0.125 Cl
ENDROOT
BRANCH   3   8
HETATM    8  C4  UNL     1     -32.676   8.849   1.443  1.00 20.00    -0.029 A 
HETATM    9  C1  UNL     1     -33.011  10.175   1.810  1.00 20.00     0.034 A 
HETATM   10  C2  UNL     1     -32.835  10.939   0.680  1.00 20.00     0.142 A 
HETATM   11  O11 UNL     1     -32.415  10.168  -0.358  1.00 20.00    -0.334 OA
HETATM   12  C3  UNL     1     -32.320   8.898   0.116  1.00 20.00     0.148 A 
ENDBRANCH   3   8
TORSDOF 1
