REMARK  1 active torsions:
REMARK  status: ('A' for Active; 'I' for Inactive)
REMARK    1  A    between atoms: C7_7  and  C9_9 
ROOT
HETATM    1  C1  UNL     1     -32.302  10.358   0.055  1.00 20.00     0.012 C 
HETATM    2  C2  UNL     1     -32.778   9.291   0.332  1.00 20.00    -0.117 C 
HETATM    3  C9  UNL     1     -33.369   7.992   0.660  1.00 20.00     0.098 C 
ENDROOT
BRANCH   3   4
HETATM    4  C7  UNL     1     -32.501   7.236   1.667  1.00 20.00     0.008 C 
HETATM    5  C5  UNL     1     -32.356   8.019   2.979  1.00 20.00     0.013 C 
HETATM    6  C4  UNL     1     -33.609   7.693   3.784  1.00 20.00     0.079 C 
HETATM    7  C3  UNL     1     -33.933   6.299   3.312  1.00 20.00     0.131 C 
HETATM    8  C6  UNL     1     -33.075   5.882   2.132  1.00 20.00     0.056 C 
HETATM    9  O10 UNL     1     -34.787   5.591   3.832  1.00 20.00    -0.298 OA
HETATM   10  C8  UNL     1     -33.844   5.088   1.093  1.00 20.00     0.018 C 
ENDBRANCH   3   4
TORSDOF 1
