REMARK  2 active torsions:
REMARK  status: ('A' for Active; 'I' for Inactive)
REMARK    1  A    between atoms: C4_4  and  C9_9 
REMARK    2  A    between atoms: C6_6  and  N10_10 
ROOT
HETATM    1  C1  UNL     1     -32.452   8.889   1.124  1.00 20.00     0.158 C 
HETATM    2  N10 UNL     1     -32.218   7.786   1.449  1.00 20.00    -0.270 NA
HETATM    3  S11 UNL     1     -32.755  10.381   0.654  1.00 20.00    -0.055 SA
ENDROOT
BRANCH   2   4
HETATM    4  C6  UNL     1     -32.710   7.422   2.775  1.00 20.00     0.113 C 
HETATM    5  C3  UNL     1     -33.982   8.193   3.120  1.00 20.00     0.028 C 
HETATM    6  C2  UNL     1     -34.826   7.244   3.976  1.00 20.00     0.007 C 
HETATM    7  C4  UNL     1     -33.989   5.968   4.134  1.00 20.00    -0.009 C 
HETATM    8  C5  UNL     1     -33.102   5.941   2.874  1.00 20.00     0.010 C 
HETATM    9  C7  UNL     1     -33.806   5.399   1.627  1.00 20.00     0.012 C 
BRANCH   7  10
HETATM   10  C9  UNL     1     -34.836   4.731   4.384  1.00 20.00     0.000 C 
HETATM   11  C8  UNL     1     -33.995   3.506   4.544  1.00 20.00     0.005 C 
ENDBRANCH   7  10
ENDBRANCH   2   4
TORSDOF 2
