REMARK  2 active torsions:
REMARK  status: ('A' for Active; 'I' for Inactive)
REMARK    1  A    between atoms: C3_3  and  C8_8 
REMARK    2  A    between atoms: C8_8  and  C9_9 
ROOT
HETATM    1  C1  UNL     1     -31.886   6.398   1.016  1.00 20.00     0.006 C 
HETATM    2  C2  UNL     1     -32.482   5.139   1.637  1.00 20.00     0.021 C 
HETATM    3  C3  UNL     1     -32.175   7.548   2.005  1.00 20.00    -0.009 C 
HETATM    4  C4  UNL     1     -32.984   6.902   3.156  1.00 20.00     0.004 C 
HETATM    5  C5  UNL     1     -33.616   5.672   2.499  1.00 20.00     0.086 C 
HETATM    6  C6  UNL     1     -33.988   7.804   3.861  1.00 20.00     0.012 C 
HETATM    7 CL10 UNL     1     -34.170   4.463   3.672  1.00 20.00    -0.125 Cl
ENDROOT
BRANCH   3   8
HETATM    8  C8  UNL     1     -32.862   8.711   1.291  1.00 20.00     0.005 C 
BRANCH   8   9
HETATM    9  C9  UNL     1     -31.974   9.288   0.194  1.00 20.00    -0.004 C 
HETATM   10  C7  UNL     1     -32.667  10.429  -0.533  1.00 20.00     0.005 C 
ENDBRANCH   8   9
ENDBRANCH   3   8
TORSDOF 2
