REMARK  2 active torsions:
REMARK  status: ('A' for Active; 'I' for Inactive)
REMARK    1  A    between atoms: C4_4  and  C5_5 
REMARK    2  A    between atoms: C5_5  and  C7_7 
ROOT
HETATM    1  C3  UNL     1     -33.125   5.580   1.226  1.00 20.00     0.207 A 
HETATM    2  C5  UNL     1     -33.079   6.564   2.371  1.00 20.00     0.085 A 
HETATM    3  O8  UNL     1     -32.075   5.554   2.205  1.00 20.00    -0.375 OA
ENDROOT
BRANCH   2   4
HETATM    4  C4  UNL     1     -33.953   6.402   3.607  1.00 20.00     0.022 A 
HETATM    5  C1  UNL     1     -34.566   7.572   4.326  1.00 20.00     0.008 A 
HETATM    6  C2  UNL     1     -35.443   6.606   3.580  1.00 20.00     0.008 A 
ENDBRANCH   2   4
BRANCH   2   7
HETATM    7  C7  UNL     1     -32.571   7.946   2.089  1.00 20.00     0.036 C 
HETATM    8  C6  UNL     1     -32.284   8.172   0.629  1.00 20.00     0.008 C 
ENDBRANCH   2   7
TORSDOF 2
