REMARK  3 active torsions:
REMARK  status: ('A' for Active; 'I' for Inactive)
REMARK    1  A    between atoms: C1_1  and  C4_4 
REMARK    2  A    between atoms: C1_1  and  C6_6 
REMARK    3  A    between atoms: N7_7  and  O8_8 
ROOT
HETATM    1  C1  UNL     1     -32.904   7.213   2.779  1.00 20.00     0.043 C 
HETATM    2  N7  UNL     1     -33.622   7.753   3.717  1.00 20.00    -0.145 NA
ENDROOT
BRANCH   1   3
HETATM    3  C4  UNL     1     -33.275   5.825   2.318  1.00 20.00     0.036 A 
HETATM    4  C2  UNL     1     -33.710   5.653   0.909  1.00 20.00     0.011 A 
HETATM    5  C3  UNL     1     -32.370   5.149   1.355  1.00 20.00     0.011 A 
ENDBRANCH   1   3
BRANCH   1   6
HETATM    6  C6  UNL     1     -31.691   7.857   2.132  1.00 20.00     0.053 C 
HETATM    7  C5  UNL     1     -32.095   8.631   0.890  1.00 20.00     0.011 C 
ENDBRANCH   1   6
BRANCH   2   8
HETATM    8  O8  UNL     1     -34.645   6.900   4.132  1.00 20.00    -0.266 OA
HETATM    9  H19 UNL     1     -35.079   7.435   4.818  1.00 20.00     0.247 HD
ENDBRANCH   2   8
TORSDOF 3
