REMARK  1 active torsions:
REMARK  status: ('A' for Active; 'I' for Inactive)
REMARK    1  A    between atoms: C5_5  and  C8_8 
ROOT
HETATM    1  C1  UNL     1     -33.814   4.632   4.644  1.00 20.00     0.018 A 
HETATM    2  C2  UNL     1     -33.131   5.595   3.908  1.00 20.00     0.010 A 
HETATM    3  C3  UNL     1     -35.188   4.754   4.793  1.00 20.00     0.087 A 
HETATM    4  C4  UNL     1     -35.202   6.728   3.522  1.00 20.00     0.095 A 
HETATM    5  C5  UNL     1     -33.829   6.657   3.340  1.00 20.00    -0.038 A 
HETATM    6  N12 UNL     1     -35.835   5.787   4.235  1.00 20.00    -0.375 N 
HETATM    7  H28 UNL     1     -36.845   5.858   4.357  1.00 20.00     0.164 HD
ENDROOT
BRANCH   5   8
HETATM    8  C8  UNL     1     -33.104   7.716   2.535  1.00 20.00     0.025 C 
HETATM    9  C6  UNL     1     -32.007   8.531   3.244  1.00 20.00     0.011 C 
HETATM   10  C7  UNL     1     -31.103   9.091   2.140  1.00 20.00     0.021 C 
HETATM   11  C10 UNL     1     -31.585   8.474   0.826  1.00 20.00     0.086 C 
HETATM   12  C9  UNL     1     -32.393   7.235   1.245  1.00 20.00     0.008 C 
HETATM   13 CL13 UNL     1     -32.629   9.639  -0.052  1.00 20.00    -0.125 Cl
HETATM   14  C11 UNL     1     -31.460   6.035   1.462  1.00 20.00     0.012 C 
ENDBRANCH   5   8
TORSDOF 1
