REMARK  2 active torsions:
REMARK  status: ('A' for Active; 'I' for Inactive)
REMARK    1  A    between atoms: C2_2  and  C10_10 
REMARK    2  A    between atoms: C7_7  and  C10_10 
ROOT
HETATM    1  C1  UNL     1     -32.192   9.325   0.228  1.00 20.00    -0.111 C 
HETATM    2  C2  UNL     1     -32.094   8.340   0.910  1.00 20.00    -0.107 C 
HETATM    3  C8  UNL     1     -32.312  10.523  -0.601  1.00 20.00     0.112 C 
ENDROOT
BRANCH   2   4
HETATM    4  C10 UNL     1     -31.962   7.139   1.736  1.00 20.00     0.099 C 
BRANCH   4   5
HETATM    5  C7  UNL     1     -33.278   6.804   2.420  1.00 20.00     0.008 C 
HETATM    6  C5  UNL     1     -33.537   7.673   3.653  1.00 20.00     0.013 C 
HETATM    7  C4  UNL     1     -34.692   6.982   4.366  1.00 20.00     0.079 C 
HETATM    8  C3  UNL     1     -34.442   5.533   4.036  1.00 20.00     0.131 C 
HETATM    9  C6  UNL     1     -33.416   5.357   2.934  1.00 20.00     0.056 C 
HETATM   10  O11 UNL     1     -35.013   4.604   4.596  1.00 20.00    -0.298 OA
HETATM   11  C9  UNL     1     -32.153   4.729   3.507  1.00 20.00     0.018 C 
ENDBRANCH   4   5
ENDBRANCH   2   4
TORSDOF 2
