REMARK  2 active torsions:
REMARK  status: ('A' for Active; 'I' for Inactive)
REMARK    1  A    between atoms: C3_3  and  C9_9 
REMARK    2  A    between atoms: C9_9  and  C10_10 
ROOT
HETATM    1  C1  UNL     1     -33.161   7.772   3.125  1.00 20.00     0.006 C 
HETATM    2  C2  UNL     1     -32.823   9.010   2.312  1.00 20.00     0.016 C 
HETATM    3  C3  UNL     1     -33.703   6.816   2.064  1.00 20.00    -0.009 C 
HETATM    4  C4  UNL     1     -32.782   7.039   0.840  1.00 20.00    -0.000 C 
HETATM    5  C5  UNL     1     -32.178   8.442   1.055  1.00 20.00     0.062 C 
HETATM    6  C6  UNL     1     -31.668   6.004   0.672  1.00 20.00     0.011 C 
HETATM    7 BR11 UNL     1     -32.514   9.601  -0.469  1.00 20.00    -0.091 Br
ENDROOT
BRANCH   3   8
HETATM    8  C9  UNL     1     -33.837   5.389   2.573  1.00 20.00     0.009 C 
BRANCH   8   9
HETATM    9  C10 UNL     1     -34.286   5.305   4.040  1.00 20.00    -0.022 C 
HETATM   10  C7  UNL     1     -35.648   5.961   4.273  1.00 20.00     0.009 C 
HETATM   11  C8  UNL     1     -34.335   3.840   4.479  1.00 20.00     0.009 C 
ENDBRANCH   8   9
ENDBRANCH   3   8
TORSDOF 2
