REMARK  2 active torsions:
REMARK  status: ('A' for Active; 'I' for Inactive)
REMARK    1  A    between atoms: C7_7  and  C10_10 
REMARK    2  A    between atoms: C9_9  and  C10_10 
ROOT
HETATM    1  C1  UNL     1     -32.607  10.413  -0.008  1.00 20.00     0.012 C 
HETATM    2  C2  UNL     1     -32.152   9.328   0.231  1.00 20.00    -0.117 C 
HETATM    3  C9  UNL     1     -31.594   8.000   0.518  1.00 20.00     0.093 C 
ENDROOT
BRANCH   3   4
HETATM    4  C10 UNL     1     -31.308   7.864   2.000  1.00 20.00     0.017 C 
BRANCH   4   5
HETATM    5  C7  UNL     1     -32.585   8.026   2.811  1.00 20.00    -0.002 C 
HETATM    6  C5  UNL     1     -32.336   7.943   4.319  1.00 20.00     0.013 C 
HETATM    7  C4  UNL     1     -33.726   7.793   4.922  1.00 20.00     0.079 C 
HETATM    8  C3  UNL     1     -34.451   7.018   3.852  1.00 20.00     0.131 C 
HETATM    9  C6  UNL     1     -33.684   6.978   2.544  1.00 20.00     0.055 C 
HETATM   10  O11 UNL     1     -35.542   6.487   4.023  1.00 20.00    -0.298 OA
HETATM   11  C8  UNL     1     -33.202   5.559   2.278  1.00 20.00     0.018 C 
ENDBRANCH   4   5
ENDBRANCH   3   4
TORSDOF 2
