REMARK  2 active torsions:
REMARK  status: ('A' for Active; 'I' for Inactive)
REMARK    1  A    between atoms: C1_1  and  N11_11 
REMARK    2  A    between atoms: C7_7  and  C10_10 
ROOT
HETATM    1  C2  UNL     1     -32.199   5.824   1.350  1.00 20.00     0.020 C 
HETATM    2  C3  UNL     1     -33.524   5.703   2.103  1.00 20.00     0.006 C 
HETATM    3  C4  UNL     1     -33.176   7.607   3.816  1.00 20.00     0.025 C 
HETATM    4  C5  UNL     1     -31.923   7.212   0.780  1.00 20.00     0.125 C 
HETATM    5  C6  UNL     1     -31.943   8.166   3.112  1.00 20.00     0.125 C 
HETATM    6  C7  UNL     1     -33.422   6.107   3.585  1.00 20.00    -0.010 C 
HETATM    7  N11 UNL     1     -32.176   8.329   1.681  1.00 20.00    -0.359 N 
ENDROOT
BRANCH   6   8
HETATM    8  C10 UNL     1     -34.699   5.687   4.322  1.00 20.00    -0.019 C 
HETATM    9  C8  UNL     1     -35.912   6.394   3.728  1.00 20.00     0.010 C 
HETATM   10  C9  UNL     1     -34.872   4.173   4.263  1.00 20.00     0.010 C 
ENDBRANCH   6   8
BRANCH   7  11
HETATM   11  C1  UNL     1     -32.593   9.553   1.173  1.00 20.00     0.350 C 
HETATM   12  O12 UNL     1     -32.790   9.845  -0.002  1.00 20.00    -0.284 OA
ENDBRANCH   7  11
TORSDOF 2
