REMARK  3 active torsions:
REMARK  status: ('A' for Active; 'I' for Inactive)
REMARK    1  A    between atoms: C1_1  and  C2_2 
REMARK    2  A    between atoms: C1_1  and  C3_3 
REMARK    3  A    between atoms: C2_2  and  C4_4 
ROOT
HETATM    1  C2  UNL     1     -34.220   6.695   2.195  1.00 20.00     0.196 C 
ENDROOT
BRANCH   1   2
HETATM    2  C1  UNL     1     -32.790   6.792   1.685  1.00 20.00     0.148 C 
HETATM    3  O5  UNL     1     -32.219   5.835   1.166  1.00 20.00    -0.296 OA
BRANCH   2   4
HETATM    4  C3  UNL     1     -32.138   8.147   1.857  1.00 20.00     0.193 C 
HETATM    5 CL9  UNL     1     -32.442   9.175   0.448  1.00 20.00    -0.123 Cl
ENDBRANCH   2   4
ENDBRANCH   1   2
BRANCH   1   6
HETATM    6  C4  UNL     1     -34.308   6.240   3.633  1.00 20.00     0.394 C 
HETATM    7  F6  UNL     1     -35.590   6.154   4.047  1.00 20.00    -0.171 F 
HETATM    8  F7  UNL     1     -33.677   7.119   4.444  1.00 20.00    -0.171 F 
HETATM    9  F8  UNL     1     -33.727   5.035   3.809  1.00 20.00    -0.171 F 
ENDBRANCH   1   6
TORSDOF 3
