REMARK  1 active torsions:
REMARK  status: ('A' for Active; 'I' for Inactive)
REMARK    1  A    between atoms: C1_1  and  N8_8 
ROOT
HETATM    1  C2  UNL     1     -32.800   7.348   0.179  1.00 20.00     0.008 C 
HETATM    2  C3  UNL     1     -33.348   5.915   0.356  1.00 20.00     0.026 C 
HETATM    3  C4  UNL     1     -31.466   6.196   1.774  1.00 20.00     0.031 C 
HETATM    4  C5  UNL     1     -33.052   7.731   2.645  1.00 20.00     0.130 C 
HETATM    5  C6  UNL     1     -32.036   7.595   1.497  1.00 20.00     0.006 C 
HETATM    6  C7  UNL     1     -32.846   5.537   1.760  1.00 20.00     0.087 C 
HETATM    7  N8  UNL     1     -33.576   6.374   2.715  1.00 20.00    -0.354 N 
ENDROOT
BRANCH   7   8
HETATM    8  C1  UNL     1     -34.627   5.969   3.495  1.00 20.00     0.351 C 
HETATM    9  O9  UNL     1     -35.293   6.664   4.253  1.00 20.00    -0.284 OA
ENDBRANCH   7   8
TORSDOF 1
