REMARK  1 active torsions:
REMARK  status: ('A' for Active; 'I' for Inactive)
REMARK    1  A    between atoms: C1_1  and  N8_8 
ROOT
HETATM    1  C2  UNL     1     -32.020   8.129   2.699  1.00 20.00     0.022 C 
HETATM    2  C3  UNL     1     -31.821   7.391   1.379  1.00 20.00     0.032 C 
HETATM    3  C4  UNL     1     -33.347   7.580   3.192  1.00 20.00     0.126 C 
HETATM    4  C5  UNL     1     -32.366   5.972   1.661  1.00 20.00     0.027 C 
HETATM    5  C6  UNL     1     -32.986   5.385   0.388  1.00 20.00     0.038 C 
HETATM    6  C7  UNL     1     -31.249   5.052   2.174  1.00 20.00     0.038 C 
HETATM    7  N8  UNL     1     -33.369   6.207   2.716  1.00 20.00    -0.351 N 
ENDROOT
BRANCH   7   8
HETATM    8  C1  UNL     1     -34.217   5.257   3.242  1.00 20.00     0.351 C 
HETATM    9  O9  UNL     1     -35.036   5.416   4.141  1.00 20.00    -0.284 OA
ENDBRANCH   7   8
TORSDOF 1
