REMARK  1 active torsions:
REMARK  status: ('A' for Active; 'I' for Inactive)
REMARK    1  A    between atoms: C6_6  and  C7_7 
ROOT
HETATM    1  C1  UNL     1     -33.667   3.807   4.405  1.00 20.00     0.065 C 
HETATM    2  C7  UNL     1     -34.602   4.779   3.818  1.00 20.00     0.186 C 
HETATM    3  N8  UNL     1     -32.931   3.039   4.868  1.00 20.00    -0.197 NA
ENDROOT
BRANCH   2   4
HETATM    4  C6  UNL     1     -33.856   5.878   3.138  1.00 20.00     0.085 A 
HETATM    5  C4  UNL     1     -33.750   7.114   3.755  1.00 20.00     0.143 A 
HETATM    6  C2  UNL     1     -33.049   8.115   3.092  1.00 20.00     0.069 A 
HETATM    7  F10 UNL     1     -34.301   7.347   4.953  1.00 20.00    -0.204 F 
HETATM    8  C5  UNL     1     -32.484   7.854   1.849  1.00 20.00     0.054 A 
HETATM    9  C3  UNL     1     -32.646   6.585   1.317  1.00 20.00     0.141 A 
HETATM   10 CL11 UNL     1     -31.612   9.063   1.003  1.00 20.00    -0.083 Cl
HETATM   11  N9  UNL     1     -33.321   5.587   1.931  1.00 20.00    -0.260 NA
ENDBRANCH   2   4
TORSDOF 1
