REMARK  3 active torsions:
REMARK  status: ('A' for Active; 'I' for Inactive)
REMARK    1  A    between atoms: C5_5  and  C7_7 
REMARK    2  A    between atoms: C5_5  and  C8_8 
REMARK    3  A    between atoms: C8_8  and  O9_9 
ROOT
HETATM    1  C1  UNL     1     -32.222   7.976   2.934  1.00 20.00     0.001 C 
HETATM    2  C2  UNL     1     -32.451   7.385   1.543  1.00 20.00     0.001 C 
HETATM    3  C3  UNL     1     -33.486   7.677   3.737  1.00 20.00     0.011 C 
HETATM    4  C4  UNL     1     -33.841   6.755   1.571  1.00 20.00     0.011 C 
HETATM    5  C5  UNL     1     -34.114   6.455   3.052  1.00 20.00    -0.019 C 
ENDROOT
BRANCH   5   6
HETATM    6  C7  UNL     1     -33.425   5.153   3.494  1.00 20.00     0.007 C 
HETATM    7  C6  UNL     1     -34.030   3.960   2.832  1.00 20.00     0.006 C 
ENDBRANCH   5   6
BRANCH   5   8
HETATM    8  C8  UNL     1     -35.613   6.355   3.340  1.00 20.00     0.173 C 
BRANCH   8   9
HETATM    9  O9  UNL     1     -35.777   5.780   4.619  1.00 20.00    -0.400 OA
HETATM   10  H25 UNL     1     -36.734   5.722   4.790  1.00 20.00     0.209 HD
ENDBRANCH   8   9
ENDBRANCH   5   8
TORSDOF 3
