REMARK  1 active torsions:
REMARK  status: ('A' for Active; 'I' for Inactive)
REMARK    1  A    between atoms: C2_2  and  C3_3 
ROOT
HETATM    1  C1  UNL     1     -32.709   5.852   2.349  1.00 20.00     0.112 C 
HETATM    2  C2  UNL     1     -33.632   5.500   3.251  1.00 20.00     0.090 C 
HETATM    3 CL6  UNL     1     -32.496   7.431   1.709  1.00 20.00    -0.095 Cl
HETATM    4 CL7  UNL     1     -33.780   3.881   3.845  1.00 20.00    -0.080 Cl
ENDROOT
BRANCH   2   5
HETATM    5  C3  UNL     1     -34.607   6.489   3.812  1.00 20.00     0.167 C 
HETATM    6  C4  UNL     1     -34.090   7.693   4.561  1.00 20.00     0.097 C 
HETATM    7  O5  UNL     1     -35.820   6.327   3.666  1.00 20.00    -0.292 OA
ENDBRANCH   2   5
TORSDOF 1
