REMARK  2 active torsions:
REMARK  status: ('A' for Active; 'I' for Inactive)
REMARK    1  A    between atoms: C1_1  and  C3_3 
REMARK    2  A    between atoms: C2_2  and  C5_5 
ROOT
HETATM    1  C1  UNL     1     -32.631   6.649   2.644  1.00 20.00     0.004 C 
HETATM    2  C2  UNL     1     -33.883   6.545   3.109  1.00 20.00     0.049 C 
ENDROOT
BRANCH   1   3
HETATM    3  C3  UNL     1     -32.179   7.779   1.863  1.00 20.00     0.007 C 
HETATM    4  C4  UNL     1     -32.932   8.359   0.922  1.00 20.00     0.056 C 
HETATM    5 BR8  UNL     1     -32.388   9.809  -0.099  1.00 20.00    -0.064 Br
ENDBRANCH   1   3
BRANCH   2   6
HETATM    6  C5  UNL     1     -34.297   5.359   3.910  1.00 20.00     0.145 C 
HETATM    7  C6  UNL     1     -33.594   4.062   3.608  1.00 20.00     0.096 C 
HETATM    8  O7  UNL     1     -35.186   5.418   4.757  1.00 20.00    -0.294 OA
ENDBRANCH   2   6
TORSDOF 2
