REMARK  4 active torsions:
REMARK  status: ('A' for Active; 'I' for Inactive)
REMARK    1  A    between atoms: C3_3  and  C7_7 
REMARK    2  A    between atoms: C6_6  and  C7_7 
REMARK    3  A    between atoms: C6_6  and  N9_9 
REMARK    4  A    between atoms: C8_8  and  N9_9 
ROOT
HETATM    1  C6  UNL     1     -32.306   8.155   2.388  1.00 20.00     0.290 C 
ENDROOT
BRANCH   1   2
HETATM    2  C7  UNL     1     -33.227   6.935   2.331  1.00 20.00     0.114 C 
HETATM    3 CL10 UNL     1     -32.379   5.545   1.587  1.00 20.00    -0.123 Cl
BRANCH   2   4
HETATM    4  C3  UNL     1     -33.778   6.531   3.693  1.00 20.00     0.006 A 
HETATM    5  C1  UNL     1     -34.954   7.260   4.281  1.00 20.00     0.006 A 
HETATM    6  C2  UNL     1     -35.112   5.845   3.797  1.00 20.00     0.006 A 
ENDBRANCH   2   4
ENDBRANCH   1   2
BRANCH   1   7
HETATM    7  N9  UNL     1     -31.783   8.500   1.087  1.00 20.00     0.088 N 
HETATM    8  H26 UNL     1     -31.542   7.649   0.572  1.00 20.00     0.316 HD
BRANCH   7   9
HETATM    9  C8  UNL     1     -32.755   9.260   0.305  1.00 20.00     0.212 C 
HETATM   10  C4  UNL     1     -32.372   9.195  -1.166  1.00 20.00     0.042 C 
HETATM   11  C5  UNL     1     -32.786  10.693   0.816  1.00 20.00     0.042 C 
ENDBRANCH   7   9
ENDBRANCH   1   7
TORSDOF 4
