REMARK  1 active torsions:
REMARK  status: ('A' for Active; 'I' for Inactive)
REMARK    1  A    between atoms: C1_1  and  C4_4 
ROOT
HETATM    1  C2  UNL     1     -32.186   5.312   1.343  1.00 20.00     0.042 C 
HETATM    2  C3  UNL     1     -32.299   7.668   2.251  1.00 20.00     0.042 C 
HETATM    3  C4  UNL     1     -33.072   6.374   1.995  1.00 20.00     0.105 C 
HETATM    4 CL7  UNL     1     -34.402   6.757   0.835  1.00 20.00    -0.110 Cl
ENDROOT
BRANCH   3   5
HETATM    5  C1  UNL     1     -33.725   5.845   3.285  1.00 20.00     0.241 C 
HETATM    6  O5  UNL     1     -33.538   4.708   3.712  1.00 20.00    -0.278 OA
HETATM    7 CL6  UNL     1     -34.754   7.017   4.078  1.00 20.00    -0.042 Cl
ENDBRANCH   3   5
TORSDOF 1
