REMARK  0 active torsions:
REMARK  status: ('A' for Active; 'I' for Inactive)
ROOT
HETATM    1  C1  UNL     1     -33.344   6.932   2.587  1.00 20.00    -0.074 C 
HETATM    2  C2  UNL     1     -34.312   6.846   3.503  1.00 20.00    -0.085 C 
HETATM    3  C3  UNL     1     -32.189   7.903   2.600  1.00 20.00     0.039 C 
HETATM    4  C4  UNL     1     -33.497   6.892   0.133  1.00 20.00     0.009 C 
HETATM    5  C5  UNL     1     -32.326   7.893   0.081  1.00 20.00     0.005 C 
HETATM    6  C6  UNL     1     -31.645   5.970   1.310  1.00 20.00     0.014 C 
HETATM    7  C7  UNL     1     -33.171   6.045   1.374  1.00 20.00     0.015 C 
HETATM    8  C8  UNL     1     -31.469   7.491   1.300  1.00 20.00    -0.010 C 
HETATM    9  C9  UNL     1     -35.424   5.840   3.399  1.00 20.00     0.043 C 
HETATM   10  C10 UNL     1     -34.360   7.751   4.702  1.00 20.00     0.043 C 
ENDROOT
TORSDOF 0
