REMARK  0 active torsions:
REMARK  status: ('A' for Active; 'I' for Inactive)
ROOT
HETATM    1  C1  UNL     1     -34.504   5.159   4.113  1.00 20.00     0.102 C 
HETATM    2  C2  UNL     1     -34.472   7.609   4.225  1.00 20.00     0.075 A 
HETATM    3  C3  UNL     1     -34.036   6.432   3.658  1.00 20.00     0.075 A 
HETATM    4  C4  UNL     1     -33.100   6.658   2.607  1.00 20.00     0.084 A 
HETATM    5  C5  UNL     1     -32.857   8.000   2.411  1.00 20.00     0.097 A 
HETATM    6  N6  UNL     1     -34.884   4.127   4.482  1.00 20.00    -0.191 NA
HETATM    7  S7  UNL     1     -33.754   8.980   3.490  1.00 20.00    -0.086 SA
HETATM    8 CL8  UNL     1     -32.375   5.389   1.706  1.00 20.00    -0.080 Cl
HETATM    9 CL9  UNL     1     -31.814   8.748   1.270  1.00 20.00    -0.074 Cl
ENDROOT
TORSDOF 0
