REMARK  0 active torsions:
REMARK  status: ('A' for Active; 'I' for Inactive)
ROOT
HETATM    1  C1  UNL     1     -34.357   6.197   3.394  1.00 20.00     0.001 C 
HETATM    2  C2  UNL     1     -33.277   6.510   2.661  1.00 20.00     0.076 C 
HETATM    3  C3  UNL     1     -35.007   7.017   4.463  1.00 20.00     0.038 C 
HETATM    4 CL4  UNL     1     -32.420   8.001   2.855  1.00 20.00    -0.076 Cl
HETATM    5 BR5  UNL     1     -32.609   5.341   1.359  1.00 20.00    -0.038 Br
ENDROOT
TORSDOF 0
