REMARK  3 active torsions:
REMARK  status: ('A' for Active; 'I' for Inactive)
REMARK    1  A    between atoms: C2_2  and  C8_8 
REMARK    2  A    between atoms: C4_4  and  C7_7 
REMARK    3  A    between atoms: C7_7  and  C8_8 
ROOT
HETATM    1  C7  UNL     1     -33.225   8.789   1.812  1.00 20.00     0.034 C 
ENDROOT
BRANCH   1   2
HETATM    2  C4  UNL     1     -32.270   8.876   0.653  1.00 20.00    -0.030 C 
HETATM    3  C3  UNL     1     -32.256   9.888  -0.227  1.00 20.00    -0.035 C 
HETATM    4  C5  UNL     1     -33.185  11.055  -0.166  1.00 20.00     0.035 C 
ENDBRANCH   1   2
BRANCH   1   5
HETATM    5  C8  UNL     1     -33.024   7.512   2.653  1.00 20.00     0.007 C 
HETATM    6  C6  UNL     1     -33.221   6.272   1.776  1.00 20.00     0.014 C 
BRANCH   5   7
HETATM    7  C2  UNL     1     -33.986   7.459   3.816  1.00 20.00    -0.032 C 
HETATM    8  C1  UNL     1     -34.891   6.489   3.994  1.00 20.00     0.007 C 
ENDBRANCH   5   7
ENDBRANCH   1   5
TORSDOF 3
