REMARK  2 active torsions:
REMARK  status: ('A' for Active; 'I' for Inactive)
REMARK    1  A    between atoms: C1_1  and  C4_4 
REMARK    2  A    between atoms: C4_4  and  C6_6 
ROOT
HETATM    1  C2  UNL     1     -34.530   8.013   2.478  1.00 20.00     0.062 A 
HETATM    2  C3  UNL     1     -33.729   7.271   3.498  1.00 20.00     0.190 A 
HETATM    3  C4  UNL     1     -33.224   7.352   2.079  1.00 20.00     0.081 A 
HETATM    4  F9  UNL     1     -34.232   6.062   3.947  1.00 20.00    -0.248 F 
ENDROOT
BRANCH   3   5
HETATM    5  C1  UNL     1     -32.093   8.245   1.850  1.00 20.00     0.184 C 
HETATM    6  O7  UNL     1     -31.967   8.663   0.666  1.00 20.00    -0.647 OA
HETATM    7  O8  UNL     1     -31.390   8.481   2.872  1.00 20.00    -0.647 OA
ENDBRANCH   3   5
BRANCH   3   8
HETATM    8  C6  UNL     1     -33.311   6.108   1.234  1.00 20.00     0.019 C 
HETATM    9  C5  UNL     1     -32.117   5.214   1.406  1.00 20.00     0.006 C 
ENDBRANCH   3   8
TORSDOF 2
