REMARK  1 active torsions:
REMARK  status: ('A' for Active; 'I' for Inactive)
REMARK    1  A    between atoms: C5_5  and  C8_8 
ROOT
HETATM    1  C1  UNL     1     -31.446   8.601   1.071  1.00 20.00     0.047 C 
HETATM    2  C2  UNL     1     -31.552   7.827   2.158  1.00 20.00    -0.009 C 
HETATM    3  C3  UNL     1     -32.625   9.341   0.560  1.00 20.00     0.149 C 
HETATM    4  C6  UNL     1     -33.955   9.144   1.251  1.00 20.00     0.084 C 
HETATM    5  C7  UNL     1     -33.762   8.857   2.736  1.00 20.00     0.025 C 
HETATM    6  C8  UNL     1     -32.807   7.668   2.991  1.00 20.00    -0.003 C 
HETATM    7  C11 UNL     1     -32.433   7.648   4.483  1.00 20.00     0.024 C 
HETATM    8  O12 UNL     1     -32.515  10.047  -0.441  1.00 20.00    -0.293 OA
ENDROOT
BRANCH   6   9
HETATM    9  C5  UNL     1     -33.482   6.361   2.658  1.00 20.00    -0.076 C 
HETATM   10  C4  UNL     1     -34.623   5.990   3.271  1.00 20.00    -0.027 C 
HETATM   11  C9  UNL     1     -35.375   6.728   4.303  1.00 20.00     0.036 C 
HETATM   12  C10 UNL     1     -32.788   5.535   1.613  1.00 20.00     0.044 C 
ENDBRANCH   6   9
TORSDOF 1
