REMARK  2 active torsions:
REMARK  status: ('A' for Active; 'I' for Inactive)
REMARK    1  A    between atoms: C6_6  and  C9_9 
REMARK    2  A    between atoms: C9_9  and  C10_10 
ROOT
HETATM    1  C1  UNL     1     -34.332   7.221   4.084  1.00 20.00     0.002 C 
HETATM    2  C2  UNL     1     -33.205   7.814   3.244  1.00 20.00     0.005 C 
HETATM    3  C3  UNL     1     -32.798   5.879   1.588  1.00 20.00     0.006 C 
HETATM    4  C4  UNL     1     -34.041   5.862   4.716  1.00 20.00     0.020 C 
HETATM    5  C5  UNL     1     -33.562   4.833   2.404  1.00 20.00     0.020 C 
HETATM    6  C6  UNL     1     -33.235   7.337   1.783  1.00 20.00    -0.014 C 
HETATM    7  C7  UNL     1     -33.209   4.880   3.891  1.00 20.00     0.082 C 
HETATM    8 CL11 UNL     1     -33.410   3.240   4.607  1.00 20.00    -0.125 Cl
ENDROOT
BRANCH   6   9
HETATM    9  C9  UNL     1     -32.343   8.246   0.927  1.00 20.00     0.004 C 
BRANCH   9  10
HETATM   10  C10 UNL     1     -33.077   9.522   0.540  1.00 20.00    -0.004 C 
HETATM   11  C8  UNL     1     -32.185  10.434  -0.287  1.00 20.00     0.005 C 
ENDBRANCH   9  10
ENDBRANCH   6   9
TORSDOF 2
