REMARK  1 active torsions:
REMARK  status: ('A' for Active; 'I' for Inactive)
REMARK    1  A    between atoms: C3_3  and  C8_8 
ROOT
HETATM    1  C1  UNL     1     -32.867   9.569   1.830  1.00 20.00     0.022 A 
HETATM    2  C2  UNL     1     -32.142   7.387   1.490  1.00 20.00     0.057 A 
HETATM    3  C3  UNL     1     -32.729   8.261   2.378  1.00 20.00    -0.046 A 
HETATM    4  C4  UNL     1     -32.380   9.645   0.544  1.00 20.00    -0.021 A 
HETATM    5  C10 UNL     1     -32.341  10.816  -0.358  1.00 20.00     0.056 C 
HETATM    6  S11 UNL     1     -31.760   8.143   0.002  1.00 20.00    -0.106 SA
ENDROOT
BRANCH   3   7
HETATM    7  C8  UNL     1     -33.176   7.877   3.778  1.00 20.00     0.020 C 
HETATM    8  C5  UNL     1     -34.677   7.975   4.087  1.00 20.00     0.010 C 
HETATM    9  C6  UNL     1     -35.278   6.601   3.769  1.00 20.00     0.016 C 
HETATM   10  C9  UNL     1     -34.093   5.667   3.551  1.00 20.00     0.058 C 
HETATM   11  C7  UNL     1     -32.878   6.406   4.092  1.00 20.00     0.025 C 
HETATM   12 BR12 UNL     1     -34.339   3.972   4.457  1.00 20.00    -0.091 Br
ENDBRANCH   3   7
TORSDOF 1
