REMARK  1 active torsions:
REMARK  status: ('A' for Active; 'I' for Inactive)
REMARK    1  A    between atoms: C4_4  and  C9_9 
ROOT
HETATM    1  C5  UNL     1     -32.719   5.320   1.445  1.00 20.00     0.002 C 
HETATM    2  C6  UNL     1     -31.489   6.179   1.753  1.00 20.00     0.009 C 
HETATM    3  C7  UNL     1     -33.745   5.354   2.572  1.00 20.00     0.020 C 
HETATM    4  C8  UNL     1     -32.872   7.595   3.321  1.00 20.00     0.029 C 
HETATM    5  C9  UNL     1     -31.815   7.624   2.193  1.00 20.00     0.020 C 
HETATM    6  C10 UNL     1     -34.114   6.790   2.935  1.00 20.00     0.083 C 
HETATM    7 CL12 UNL     1     -35.277   6.785   4.293  1.00 20.00    -0.125 Cl
ENDROOT
BRANCH   5   8
HETATM    8  C4  UNL     1     -32.163   8.623   1.091  1.00 20.00    -0.047 A 
HETATM    9  C1  UNL     1     -32.444  10.000   1.326  1.00 20.00     0.015 A 
HETATM   10  C2  UNL     1     -32.729  10.677   0.161  1.00 20.00     0.050 A 
HETATM   11  S11 UNL     1     -32.656   9.653  -1.210  1.00 20.00    -0.113 SA
HETATM   12  C3  UNL     1     -32.243   8.300  -0.246  1.00 20.00     0.057 A 
ENDBRANCH   5   8
TORSDOF 1
