REMARK  0 active torsions:
REMARK  status: ('A' for Active; 'I' for Inactive)
ROOT
HETATM    1  C1  UNL     1     -33.017   6.113   1.331  1.00 20.00     0.004 C 
HETATM    2  C2  UNL     1     -33.736   5.467   2.516  1.00 20.00     0.040 C 
HETATM    3  C3  UNL     1     -33.687   7.587   3.987  1.00 20.00     0.041 C 
HETATM    4  C4  UNL     1     -31.789   6.920   1.762  1.00 20.00     0.009 C 
HETATM    5  C5  UNL     1     -33.347   8.651   2.941  1.00 20.00     0.012 C 
HETATM    6  C6  UNL     1     -35.970   6.591   3.232  1.00 20.00     0.207 A 
HETATM    7  C7  UNL     1     -34.468   6.458   3.372  1.00 20.00     0.082 A 
HETATM    8  C8  UNL     1     -32.045   8.403   2.136  1.00 20.00    -0.048 C 
HETATM    9  C9  UNL     1     -30.835   8.901   2.956  1.00 20.00     0.015 C 
HETATM   10  C10 UNL     1     -32.114   9.252   0.847  1.00 20.00     0.015 C 
HETATM   11  O11 UNL     1     -35.378   5.832   4.294  1.00 20.00    -0.375 OA
ENDROOT
TORSDOF 0
