REMARK  1 active torsions:
REMARK  status: ('A' for Active; 'I' for Inactive)
REMARK    1  A    between atoms: C8_8  and  C11_11 
ROOT
HETATM    1  C1  UNL     1     -32.393   9.320   0.185  1.00 20.00     0.064 C 
HETATM    2  C2  UNL     1     -31.932   6.104   0.765  1.00 20.00     0.002 C 
HETATM    3  C3  UNL     1     -31.227   7.390   1.195  1.00 20.00     0.019 C 
HETATM    4  C4  UNL     1     -33.494   8.273   2.113  1.00 20.00     0.019 C 
HETATM    5  C5  UNL     1     -32.387   5.255   1.952  1.00 20.00     0.005 C 
HETATM    6  C6  UNL     1     -33.435   7.235   3.234  1.00 20.00     0.006 C 
HETATM    7  C7  UNL     1     -32.149   8.590   1.447  1.00 20.00     0.093 C 
HETATM    8  C8  UNL     1     -33.599   5.793   2.726  1.00 20.00    -0.011 C 
HETATM    9  N12 UNL     1     -32.584   9.893  -0.806  1.00 20.00    -0.197 NA
ENDROOT
BRANCH   8  10
HETATM   10  C11 UNL     1     -33.893   4.861   3.908  1.00 20.00    -0.019 C 
HETATM   11  C9  UNL     1     -35.315   5.080   4.414  1.00 20.00     0.010 C 
HETATM   12  C10 UNL     1     -33.679   3.407   3.503  1.00 20.00     0.010 C 
ENDBRANCH   8  10
TORSDOF 1
