REMARK  1 active torsions:
REMARK  status: ('A' for Active; 'I' for Inactive)
REMARK    1  A    between atoms: C4_4  and  C8_8 
ROOT
HETATM    1  C5  UNL     1     -32.315   9.548  -0.081  1.00 20.00     0.002 C 
HETATM    2  C6  UNL     1     -33.197   9.312   1.147  1.00 20.00     0.011 C 
HETATM    3  C7  UNL     1     -31.297   8.410  -0.104  1.00 20.00     0.021 C 
HETATM    4  C8  UNL     1     -32.509   8.189   1.944  1.00 20.00     0.037 C 
HETATM    5  C9  UNL     1     -31.859   7.343   0.831  1.00 20.00     0.090 C 
HETATM    6 CL11 UNL     1     -33.049   6.329  -0.045  1.00 20.00    -0.124 Cl
ENDROOT
BRANCH   4   7
HETATM    7  C4  UNL     1     -33.347   7.440   2.960  1.00 20.00    -0.046 A 
HETATM    8  C1  UNL     1     -33.583   6.035   2.915  1.00 20.00     0.015 A 
HETATM    9  C2  UNL     1     -34.378   5.610   3.956  1.00 20.00     0.050 A 
HETATM   10  S10 UNL     1     -34.837   6.902   4.983  1.00 20.00    -0.113 SA
HETATM   11  C3  UNL     1     -33.971   8.035   4.035  1.00 20.00     0.057 A 
ENDBRANCH   4   7
TORSDOF 1
