REMARK  3 active torsions:
REMARK  status: ('A' for Active; 'I' for Inactive)
REMARK    1  A    between atoms: C4_4  and  C9_9 
REMARK    2  A    between atoms: C8_8  and  C9_9 
REMARK    3  A    between atoms: C9_9  and  O10_10 
ROOT
HETATM    1  C9  UNL     1     -32.127   7.730   2.222  1.00 20.00     0.155 C 
ENDROOT
BRANCH   1   2
HETATM    2  C4  UNL     1     -33.293   7.087   2.941  1.00 20.00    -0.022 A 
HETATM    3  C1  UNL     1     -34.232   7.807   3.734  1.00 20.00     0.017 A 
HETATM    4  C2  UNL     1     -35.192   6.981   4.276  1.00 20.00     0.050 A 
HETATM    5  S11 UNL     1     -34.959   5.345   3.829  1.00 20.00    -0.113 SA
HETATM    6  C3  UNL     1     -33.570   5.738   2.907  1.00 20.00     0.059 A 
ENDBRANCH   1   2
BRANCH   1   7
HETATM    7  C8  UNL     1     -32.568   8.728   1.171  1.00 20.00     0.019 C 
HETATM    8  C6  UNL     1     -31.470   9.259   0.213  1.00 20.00     0.007 C 
HETATM    9  C5  UNL     1     -32.188  10.624   0.267  1.00 20.00     0.001 C 
HETATM   10  C7  UNL     1     -32.749  10.195   1.639  1.00 20.00     0.007 C 
ENDBRANCH   1   7
BRANCH   1  11
HETATM   11  O10 UNL     1     -31.366   6.695   1.597  1.00 20.00    -0.391 OA
HETATM   12  H23 UNL     1     -31.966   6.251   0.979  1.00 20.00     0.210 HD
ENDBRANCH   1  11
TORSDOF 3
