REMARK  2 active torsions:
REMARK  status: ('A' for Active; 'I' for Inactive)
REMARK    1  A    between atoms: C8_8  and  C10_10 
REMARK    2  A    between atoms: C10_10  and  C11_11 
ROOT
HETATM    1  C1  UNL     1     -33.374   3.914   4.007  1.00 20.00     0.064 C 
HETATM    2  C2  UNL     1     -33.607   7.673   4.180  1.00 20.00     0.002 C 
HETATM    3  C3  UNL     1     -34.133   6.259   3.940  1.00 20.00     0.019 C 
HETATM    4  C4  UNL     1     -32.725   5.236   2.046  1.00 20.00     0.019 C 
HETATM    5  C5  UNL     1     -33.196   8.447   2.931  1.00 20.00     0.005 C 
HETATM    6  C6  UNL     1     -32.740   6.563   1.287  1.00 20.00     0.006 C 
HETATM    7  C7  UNL     1     -33.022   5.276   3.550  1.00 20.00     0.093 C 
HETATM    8  C8  UNL     1     -32.146   7.762   2.040  1.00 20.00    -0.014 C 
HETATM    9  N12 UNL     1     -33.649   2.845   4.365  1.00 20.00    -0.197 NA
ENDROOT
BRANCH   8  10
HETATM   10  C10 UNL     1     -31.620   8.787   1.025  1.00 20.00     0.004 C 
BRANCH  10  11
HETATM   11  C11 UNL     1     -32.741   9.287   0.124  1.00 20.00    -0.004 C 
HETATM   12  C9  UNL     1     -32.225  10.319  -0.866  1.00 20.00     0.005 C 
ENDBRANCH  10  11
ENDBRANCH   8  10
TORSDOF 2
