REMARK  2 active torsions:
REMARK  status: ('A' for Active; 'I' for Inactive)
REMARK    1  A    between atoms: C7_7  and  C10_10 
REMARK    2  A    between atoms: C10_10  and  C11_11 
ROOT
HETATM    1  C1  UNL     1     -32.689   5.689   1.676  1.00 20.00     0.004 C 
HETATM    2  C2  UNL     1     -31.442   6.556   1.832  1.00 20.00     0.005 C 
HETATM    3  C3  UNL     1     -32.144   7.954   3.855  1.00 20.00     0.007 C 
HETATM    4  C4  UNL     1     -33.440   5.432   2.980  1.00 20.00     0.040 C 
HETATM    5  C5  UNL     1     -33.646   7.784   4.071  1.00 20.00     0.040 C 
HETATM    6  C6  UNL     1     -35.632   6.800   2.708  1.00 20.00     0.207 A 
HETATM    7  C7  UNL     1     -31.642   7.969   2.402  1.00 20.00    -0.014 C 
HETATM    8  C8  UNL     1     -34.283   6.609   3.380  1.00 20.00     0.082 A 
HETATM    9  O12 UNL     1     -35.522   6.218   4.007  1.00 20.00    -0.375 OA
ENDROOT
BRANCH   7  10
HETATM   10  C10 UNL     1     -32.471   8.863   1.480  1.00 20.00     0.004 C 
BRANCH  10  11
HETATM   11  C11 UNL     1     -31.778   9.053   0.137  1.00 20.00    -0.004 C 
HETATM   12  C9  UNL     1     -32.613   9.923  -0.789  1.00 20.00     0.005 C 
ENDBRANCH  10  11
ENDBRANCH   7  10
TORSDOF 2
