REMARK  0 active torsions:
REMARK  status: ('A' for Active; 'I' for Inactive)
ROOT
HETATM    1  C1  UNL     1     -32.604   9.316   0.928  1.00 20.00     0.085 C 
HETATM    2  C2  UNL     1     -33.148   6.099   1.277  1.00 20.00     0.004 C 
HETATM    3  C3  UNL     1     -31.938   7.007   1.505  1.00 20.00     0.041 C 
HETATM    4  C4  UNL     1     -33.400   8.460   3.090  1.00 20.00     0.042 C 
HETATM    5  C5  UNL     1     -33.503   5.279   2.520  1.00 20.00     0.009 C 
HETATM    6  C6  UNL     1     -33.413   7.319   4.113  1.00 20.00     0.011 C 
HETATM    7  C7  UNL     1     -32.273   8.407   2.045  1.00 20.00     0.125 C 
HETATM    8  C8  UNL     1     -34.171   6.031   3.694  1.00 20.00    -0.048 C 
HETATM    9  C9  UNL     1     -34.175   5.080   4.915  1.00 20.00     0.015 C 
HETATM   10  C10 UNL     1     -35.646   6.332   3.351  1.00 20.00     0.015 C 
HETATM   11  N11 UNL     1     -32.864  10.030   0.051  1.00 20.00    -0.195 NA
HETATM   12 CL12 UNL     1     -30.763   9.089   2.769  1.00 20.00    -0.103 Cl
ENDROOT
TORSDOF 0
