REMARK  5 active torsions:
REMARK  status: ('A' for Active; 'I' for Inactive)
REMARK    1  A    between atoms: C5_5  and  C7_7 
REMARK    2  A    between atoms: C6_6  and  C8_8 
REMARK    3  A    between atoms: C7_7  and  C9_9 
REMARK    4  A    between atoms: C8_8  and  C9_9 
REMARK    5  A    between atoms: C9_9  and  S11_11 
ROOT
HETATM    1  C1  UNL     1     -32.107   8.402   3.269  1.00 20.00     0.080 C 
HETATM    2  C9  UNL     1     -32.540   7.491   2.186  1.00 20.00     0.096 C 
HETATM    3  N10 UNL     1     -31.772   9.118   4.119  1.00 20.00    -0.196 NA
ENDROOT
BRANCH   2   4
HETATM    4  C7  UNL     1     -33.240   8.304   1.062  1.00 20.00     0.035 C 
BRANCH   4   5
HETATM    5  C5  UNL     1     -32.386   9.415   0.429  1.00 20.00    -0.002 C 
HETATM    6  C2  UNL     1     -33.180  10.196  -0.609  1.00 20.00     0.005 C 
ENDBRANCH   4   5
ENDBRANCH   2   4
BRANCH   2   7
HETATM    7  C8  UNL     1     -33.466   6.381   2.746  1.00 20.00     0.035 C 
BRANCH   7   8
HETATM    8  C6  UNL     1     -34.539   6.834   3.751  1.00 20.00    -0.002 C 
HETATM    9  C3  UNL     1     -35.438   5.674   4.155  1.00 20.00     0.005 C 
ENDBRANCH   7   8
ENDBRANCH   2   7
BRANCH   2  10
HETATM   10  S11 UNL     1     -31.032   6.743   1.413  1.00 20.00    -0.148 SA
HETATM   11  C4  UNL     1     -31.846   5.325   0.655  1.00 20.00     0.091 C 
ENDBRANCH   2  10
TORSDOF 5
