REMARK  2 active torsions:
REMARK  status: ('A' for Active; 'I' for Inactive)
REMARK    1  A    between atoms: C5_5  and  S11_11 
REMARK    2  A    between atoms: C9_9  and  S11_11 
ROOT
HETATM    1  C1  UNL     1     -33.542   7.524   3.902  1.00 20.00     0.080 C 
HETATM    2  C2  UNL     1     -35.500   5.302   4.430  1.00 20.00     0.005 C 
HETATM    3  C3  UNL     1     -34.173   5.067   3.676  1.00 20.00     0.036 C 
HETATM    4  C4  UNL     1     -35.798   6.440   3.430  1.00 20.00     0.036 C 
HETATM    5  C5  UNL     1     -34.275   6.524   3.159  1.00 20.00     0.097 C 
HETATM    6  N10 UNL     1     -32.954   8.326   4.499  1.00 20.00    -0.196 NA
ENDROOT
BRANCH   5   7
HETATM    7  S11 UNL     1     -33.891   6.658   1.377  1.00 20.00    -0.135 SA
BRANCH   7   8
HETATM    8  C9  UNL     1     -32.084   6.360   1.490  1.00 20.00    -0.001 C 
HETATM    9  C6  UNL     1     -31.811   5.448   2.689  1.00 20.00     0.026 C 
HETATM   10  C7  UNL     1     -31.624   5.686   0.194  1.00 20.00     0.026 C 
HETATM   11  C8  UNL     1     -31.375   7.706   1.670  1.00 20.00     0.026 C 
ENDBRANCH   7   8
ENDBRANCH   5   7
TORSDOF 2
