REMARK  1 active torsions:
REMARK  status: ('A' for Active; 'I' for Inactive)
REMARK    1  A    between atoms: C3_3  and  C8_8 
ROOT
HETATM    1  C1  UNL     1     -32.753   5.327   3.122  1.00 20.00     0.022 A 
HETATM    2  C2  UNL     1     -34.310   7.035   3.369  1.00 20.00     0.057 A 
HETATM    3  C3  UNL     1     -33.074   6.691   2.867  1.00 20.00    -0.046 A 
HETATM    4  C4  UNL     1     -33.756   4.679   3.810  1.00 20.00    -0.021 A 
HETATM    5  C10 UNL     1     -33.803   3.271   4.260  1.00 20.00     0.056 C 
HETATM    6  S11 UNL     1     -35.078   5.715   4.145  1.00 20.00    -0.106 SA
ENDROOT
BRANCH   3   7
HETATM    7  C8  UNL     1     -32.164   7.649   2.131  1.00 20.00     0.020 C 
HETATM    8  C5  UNL     1     -31.834   7.229   0.683  1.00 20.00     0.010 C 
HETATM    9  C6  UNL     1     -32.399   8.331  -0.208  1.00 20.00     0.016 C 
HETATM   10  C9  UNL     1     -32.304   9.565   0.668  1.00 20.00     0.058 C 
HETATM   11  C7  UNL     1     -32.758   9.067   2.030  1.00 20.00     0.025 C 
HETATM   12 BR12 UNL     1     -33.432  10.990   0.013  1.00 20.00    -0.091 Br
ENDBRANCH   3   7
TORSDOF 1
