REMARK  1 active torsions:
REMARK  status: ('A' for Active; 'I' for Inactive)
REMARK    1  A    between atoms: C4_4  and  C8_8 
ROOT
HETATM    1  C5  UNL     1     -34.443   6.806   3.815  1.00 20.00     0.002 C 
HETATM    2  C6  UNL     1     -33.287   7.788   3.631  1.00 20.00     0.011 C 
HETATM    3  C7  UNL     1     -33.999   5.556   3.072  1.00 20.00     0.021 C 
HETATM    4  C8  UNL     1     -32.534   7.333   2.360  1.00 20.00     0.037 C 
HETATM    5  C9  UNL     1     -33.343   6.136   1.828  1.00 20.00     0.090 C 
HETATM    6 CL11 UNL     1     -32.323   4.941   1.002  1.00 20.00    -0.124 Cl
ENDROOT
BRANCH   4   7
HETATM    7  C4  UNL     1     -32.346   8.426   1.331  1.00 20.00    -0.046 A 
HETATM    8  C1  UNL     1     -32.831   9.757   1.487  1.00 20.00     0.015 A 
HETATM    9  C2  UNL     1     -32.525  10.550   0.404  1.00 20.00     0.050 A 
HETATM   10  S10 UNL     1     -31.657   9.691  -0.797  1.00 20.00    -0.113 SA
HETATM   11  C3  UNL     1     -31.688   8.253   0.133  1.00 20.00     0.057 A 
ENDBRANCH   4   7
TORSDOF 1
