REMARK  1 active torsions:
REMARK  status: ('A' for Active; 'I' for Inactive)
REMARK    1  A    between atoms: C4_4  and  C10_10 
ROOT
HETATM    1  C5  UNL     1     -33.807   7.171   3.629  1.00 20.00     0.001 C 
HETATM    2  C6  UNL     1     -33.769   5.683   3.300  1.00 20.00     0.001 C 
HETATM    3  C7  UNL     1     -33.795   8.054   2.385  1.00 20.00     0.009 C 
HETATM    4  C8  UNL     1     -32.422   5.174   2.800  1.00 20.00     0.020 C 
HETATM    5  C9  UNL     1     -31.369   7.260   1.718  1.00 20.00     0.029 C 
HETATM    6  C10 UNL     1     -32.387   8.412   1.881  1.00 20.00     0.020 C 
HETATM    7  C11 UNL     1     -31.846   5.815   1.535  1.00 20.00     0.083 C 
HETATM    8 CL13 UNL     1     -32.913   5.609   0.124  1.00 20.00    -0.125 Cl
ENDROOT
BRANCH   6   9
HETATM    9  C4  UNL     1     -32.396   9.314   0.647  1.00 20.00    -0.047 A 
HETATM   10  C1  UNL     1     -32.528  10.732   0.700  1.00 20.00     0.015 A 
HETATM   11  C2  UNL     1     -32.505  11.301  -0.554  1.00 20.00     0.050 A 
HETATM   12  S12 UNL     1     -32.326  10.127  -1.789  1.00 20.00    -0.113 SA
HETATM   13  C3  UNL     1     -32.278   8.853  -0.646  1.00 20.00     0.057 A 
ENDBRANCH   6   9
TORSDOF 1
