REMARK  2 active torsions:
REMARK  status: ('A' for Active; 'I' for Inactive)
REMARK    1  A    between atoms: C6_6  and  C9_9 
REMARK    2  A    between atoms: C9_9  and  C10_10 
ROOT
HETATM    1  C1  UNL     1     -34.085   7.848   4.382  1.00 20.00     0.002 C 
HETATM    2  C2  UNL     1     -33.483   8.553   3.171  1.00 20.00     0.005 C 
HETATM    3  C3  UNL     1     -33.029   6.616   1.593  1.00 20.00     0.006 C 
HETATM    4  C4  UNL     1     -34.716   6.481   4.115  1.00 20.00     0.020 C 
HETATM    5  C5  UNL     1     -33.257   5.307   2.349  1.00 20.00     0.020 C 
HETATM    6  C6  UNL     1     -32.409   7.760   2.407  1.00 20.00    -0.014 C 
HETATM    7  C7  UNL     1     -33.671   5.407   3.817  1.00 20.00     0.082 C 
HETATM    8 CL11 UNL     1     -34.303   3.800   4.328  1.00 20.00    -0.125 Cl
ENDROOT
BRANCH   6   9
HETATM    9  C9  UNL     1     -31.675   8.716   1.456  1.00 20.00     0.004 C 
BRANCH   9  10
HETATM   10  C10 UNL     1     -32.633   9.309   0.432  1.00 20.00    -0.004 C 
HETATM   11  C8  UNL     1     -31.911  10.275  -0.494  1.00 20.00     0.005 C 
ENDBRANCH   9  10
ENDBRANCH   6   9
TORSDOF 2
