REMARK  1 active torsions:
REMARK  status: ('A' for Active; 'I' for Inactive)
REMARK    1  A    between atoms: C3_3  and  C8_8 
ROOT
HETATM    1  C1  UNL     1     -33.699   7.319   3.227  1.00 20.00     0.022 A 
HETATM    2  C2  UNL     1     -33.168   6.098   1.322  1.00 20.00     0.057 A 
HETATM    3  C3  UNL     1     -33.092   7.327   1.938  1.00 20.00    -0.045 A 
HETATM    4  C4  UNL     1     -34.217   6.083   3.546  1.00 20.00    -0.021 A 
HETATM    5  C10 UNL     1     -34.920   5.671   4.781  1.00 20.00     0.056 C 
HETATM    6  S11 UNL     1     -33.970   4.940   2.296  1.00 20.00    -0.106 SA
ENDROOT
BRANCH   3   7
HETATM    7  C8  UNL     1     -32.439   8.545   1.320  1.00 20.00     0.033 C 
HETATM    8  C6  UNL     1     -33.041   9.868   1.826  1.00 20.00     0.010 C 
HETATM    9  C5  UNL     1     -32.792  10.840   0.684  1.00 20.00     0.002 C 
HETATM   10  C7  UNL     1     -33.101  10.003  -0.550  1.00 20.00     0.016 C 
HETATM   11  C9  UNL     1     -32.570   8.610  -0.217  1.00 20.00     0.066 C 
HETATM   12 BR12 UNL     1     -30.810   8.359  -1.044  1.00 20.00    -0.090 Br
ENDBRANCH   3   7
TORSDOF 1
