REMARK  1 active torsions:
REMARK  status: ('A' for Active; 'I' for Inactive)
REMARK    1  A    between atoms: C8_8  and  C11_11 
ROOT
HETATM    1  C1  UNL     1     -34.529   5.067   3.829  1.00 20.00     0.064 C 
HETATM    2  C2  UNL     1     -34.026   8.871   3.807  1.00 20.00     0.002 C 
HETATM    3  C3  UNL     1     -34.095   7.431   4.305  1.00 20.00     0.019 C 
HETATM    4  C4  UNL     1     -32.805   6.198   2.497  1.00 20.00     0.019 C 
HETATM    5  C5  UNL     1     -32.876   9.191   2.852  1.00 20.00     0.005 C 
HETATM    6  C6  UNL     1     -32.568   7.146   1.321  1.00 20.00     0.006 C 
HETATM    7  C7  UNL     1     -34.155   6.357   3.208  1.00 20.00     0.093 C 
HETATM    8  C8  UNL     1     -33.080   8.587   1.455  1.00 20.00    -0.011 C 
HETATM    9  N12 UNL     1     -34.823   4.056   4.316  1.00 20.00    -0.197 NA
ENDROOT
BRANCH   8  10
HETATM   10  C11 UNL     1     -32.398   9.461   0.395  1.00 20.00    -0.019 C 
HETATM   11  C9  UNL     1     -32.569   8.845  -0.990  1.00 20.00     0.010 C 
HETATM   12  C10 UNL     1     -32.961  10.877   0.432  1.00 20.00     0.010 C 
ENDBRANCH   8  10
TORSDOF 1
