REMARK  2 active torsions:
REMARK  status: ('A' for Active; 'I' for Inactive)
REMARK    1  A    between atoms: C8_8  and  C10_10 
REMARK    2  A    between atoms: C10_10  and  C11_11 
ROOT
HETATM    1  C1  UNL     1     -33.812   3.968   3.944  1.00 20.00     0.064 C 
HETATM    2  C2  UNL     1     -33.552   7.286   4.340  1.00 20.00     0.002 C 
HETATM    3  C3  UNL     1     -34.613   6.356   3.755  1.00 20.00     0.019 C 
HETATM    4  C4  UNL     1     -32.818   5.392   2.141  1.00 20.00     0.019 C 
HETATM    5  C5  UNL     1     -33.101   8.362   3.351  1.00 20.00     0.005 C 
HETATM    6  C6  UNL     1     -32.805   6.718   1.382  1.00 20.00     0.006 C 
HETATM    7  C7  UNL     1     -34.072   5.139   2.990  1.00 20.00     0.093 C 
HETATM    8  C8  UNL     1     -32.208   7.871   2.205  1.00 20.00    -0.014 C 
HETATM    9  N12 UNL     1     -33.616   3.081   4.667  1.00 20.00    -0.197 NA
ENDROOT
BRANCH   8  10
HETATM   10  C10 UNL     1     -31.906   9.007   1.309  1.00 20.00     0.004 C 
BRANCH  10  11
HETATM   11  C11 UNL     1     -33.180   9.570   0.694  1.00 20.00    -0.004 C 
HETATM   12  C9  UNL     1     -32.872  10.755  -0.208  1.00 20.00     0.005 C 
ENDBRANCH  10  11
ENDBRANCH   8  10
TORSDOF 2
