REMARK  1 active torsions:
REMARK  status: ('A' for Active; 'I' for Inactive)
REMARK    1  A    between atoms: C4_4  and  C8_8 
ROOT
HETATM    1  C5  UNL     1     -32.618   6.664   1.633  1.00 20.00     0.011 C 
HETATM    2  C6  UNL     1     -33.473   5.664   2.417  1.00 20.00     0.021 C 
HETATM    3  C7  UNL     1     -34.058   7.857   3.157  1.00 20.00     0.029 C 
HETATM    4  C8  UNL     1     -32.769   8.030   2.339  1.00 20.00     0.020 C 
HETATM    5  C9  UNL     1     -33.941   6.423   3.651  1.00 20.00     0.083 C 
HETATM    6 CL11 UNL     1     -35.470   5.803   4.288  1.00 20.00    -0.125 Cl
ENDROOT
BRANCH   4   7
HETATM    7  C4  UNL     1     -32.694   9.222   1.410  1.00 20.00    -0.047 A 
HETATM    8  C1  UNL     1     -32.549   9.120  -0.004  1.00 20.00     0.015 A 
HETATM    9  C2  UNL     1     -32.506  10.356  -0.610  1.00 20.00     0.050 A 
HETATM   10  S10 UNL     1     -32.639  11.633   0.524  1.00 20.00    -0.113 SA
HETATM   11  C3  UNL     1     -32.755  10.533   1.831  1.00 20.00     0.057 A 
ENDBRANCH   4   7
TORSDOF 1
