REMARK  0 active torsions:
REMARK  status: ('A' for Active; 'I' for Inactive)
ROOT
HETATM    1  C1  UNL     1     -33.721   4.391   3.780  1.00 20.00     0.064 C 
HETATM    2  C2  UNL     1     -33.276   7.646   4.106  1.00 20.00     0.002 C 
HETATM    3  C3  UNL     1     -34.476   6.742   3.824  1.00 20.00     0.019 C 
HETATM    4  C4  UNL     1     -33.191   5.737   1.796  1.00 20.00     0.020 C 
HETATM    5  C5  UNL     1     -33.092   8.726   3.037  1.00 20.00     0.008 C 
HETATM    6  C6  UNL     1     -33.318   7.073   1.061  1.00 20.00     0.010 C 
HETATM    7  C7  UNL     1     -34.183   5.520   2.945  1.00 20.00     0.093 C 
HETATM    8  C8  UNL     1     -32.540   8.271   1.667  1.00 20.00    -0.048 C 
HETATM    9  C9  UNL     1     -31.033   7.962   1.783  1.00 20.00     0.015 C 
HETATM   10  C10 UNL     1     -32.686   9.461   0.688  1.00 20.00     0.015 C 
HETATM   11  N11 UNL     1     -33.357   3.506   4.436  1.00 20.00    -0.197 NA
ENDROOT
TORSDOF 0
