REMARK  2 active torsions:
REMARK  status: ('A' for Active; 'I' for Inactive)
REMARK    1  A    between atoms: C8_8  and  C10_10 
REMARK    2  A    between atoms: C10_10  and  C11_11 
ROOT
HETATM    1  C1  UNL     1     -33.925   3.890   3.818  1.00 20.00     0.064 C 
HETATM    2  C2  UNL     1     -32.428   5.024   1.291  1.00 20.00     0.002 C 
HETATM    3  C3  UNL     1     -33.929   4.920   1.562  1.00 20.00     0.019 C 
HETATM    4  C4  UNL     1     -34.012   6.365   3.736  1.00 20.00     0.019 C 
HETATM    5  C5  UNL     1     -31.662   6.093   2.064  1.00 20.00     0.005 C 
HETATM    6  C6  UNL     1     -33.708   7.532   2.796  1.00 20.00     0.006 C 
HETATM    7  C7  UNL     1     -34.382   5.047   3.025  1.00 20.00     0.093 C 
HETATM    8  C8  UNL     1     -32.309   7.485   2.147  1.00 20.00    -0.014 C 
HETATM    9  N12 UNL     1     -33.566   2.981   4.443  1.00 20.00    -0.197 NA
ENDROOT
BRANCH   8  10
HETATM   10  C10 UNL     1     -32.329   8.180   0.784  1.00 20.00     0.004 C 
BRANCH  10  11
HETATM   11  C11 UNL     1     -32.538   9.680   0.939  1.00 20.00    -0.004 C 
HETATM   12  C9  UNL     1     -32.535  10.374  -0.413  1.00 20.00     0.005 C 
ENDBRANCH  10  11
ENDBRANCH   8  10
TORSDOF 2
