REMARK  3 active torsions:
REMARK  status: ('A' for Active; 'I' for Inactive)
REMARK    1  A    between atoms: C4_4  and  C10_10 
REMARK    2  A    between atoms: C8_8  and  O11_11 
REMARK    3  A    between atoms: C9_9  and  C10_10 
ROOT
HETATM    1  C1  UNL     1     -33.448  10.590   0.579  1.00 20.00     0.012 C 
HETATM    2  C2  UNL     1     -32.796   9.604   0.371  1.00 20.00    -0.117 C 
HETATM    3  C9  UNL     1     -31.997   8.397   0.111  1.00 20.00     0.097 C 
ENDROOT
BRANCH   3   4
HETATM    4  C10 UNL     1     -31.531   7.733   1.399  1.00 20.00     0.046 C 
BRANCH   4   5
HETATM    5  C4  UNL     1     -32.704   7.306   2.231  1.00 20.00    -0.080 C 
HETATM    6  C3  UNL     1     -33.298   6.111   2.061  1.00 20.00     0.007 C 
HETATM    7  C8  UNL     1     -34.499   5.661   2.839  1.00 20.00     0.141 C 
HETATM    8  C7  UNL     1     -35.172   6.791   3.625  1.00 20.00     0.036 C 
HETATM    9  C6  UNL     1     -34.134   7.686   4.299  1.00 20.00     0.007 C 
HETATM   10  C5  UNL     1     -33.176   8.292   3.270  1.00 20.00     0.034 C 
BRANCH   7  11
HETATM   11  O11 UNL     1     -34.075   4.634   3.731  1.00 20.00    -0.392 OA
HETATM   12  H25 UNL     1     -33.714   3.921   3.181  1.00 20.00     0.210 HD
ENDBRANCH   7  11
ENDBRANCH   4   5
ENDBRANCH   3   4
TORSDOF 3
