REMARK  2 active torsions:
REMARK  status: ('A' for Active; 'I' for Inactive)
REMARK    1  A    between atoms: C2_2  and  C8_8 
REMARK    2  A    between atoms: C4_4  and  C8_8 
ROOT
HETATM    1  C1  UNL     1     -33.881   6.652   2.056  1.00 20.00    -0.004 C 
HETATM    2  C2  UNL     1     -32.900   7.547   2.230  1.00 20.00    -0.079 C 
HETATM    3  C5  UNL     1     -32.736   7.910   3.673  1.00 20.00     0.036 C 
HETATM    4  C6  UNL     1     -34.024   7.369   4.298  1.00 20.00     0.028 C 
HETATM    5  C7  UNL     1     -34.526   6.277   3.349  1.00 20.00     0.105 C 
HETATM    6 CL9  UNL     1     -33.969   4.665   3.850  1.00 20.00    -0.121 Cl
ENDROOT
BRANCH   2   7
HETATM    7  C8  UNL     1     -32.020   8.126   1.183  1.00 20.00     0.060 C 
BRANCH   7   8
HETATM    8  C4  UNL     1     -32.596   9.372   0.576  1.00 20.00    -0.033 C 
HETATM    9  C3  UNL     1     -32.904   9.503  -0.719  1.00 20.00     0.007 C 
ENDBRANCH   7   8
ENDBRANCH   2   7
TORSDOF 2
