REMARK  0 active torsions:
REMARK  status: ('A' for Active; 'I' for Inactive)
ROOT
HETATM    1  C1  UNL     1     -32.500   5.367   1.477  1.00 20.00     0.067 C 
HETATM    2  C2  UNL     1     -33.450   6.208   2.211  1.00 20.00     0.127 C 
HETATM    3  C3  UNL     1     -32.799   7.392   2.912  1.00 20.00     0.030 C 
HETATM    4  C4  UNL     1     -34.167   5.504   3.367  1.00 20.00     0.136 C 
HETATM    5  C5  UNL     1     -33.887   7.769   3.914  1.00 20.00     0.123 C 
HETATM    6  C6  UNL     1     -32.417   8.535   1.981  1.00 20.00     0.014 C 
HETATM    7  C7  UNL     1     -33.355   4.456   4.124  1.00 20.00     0.041 C 
HETATM    8  C8  UNL     1     -33.365   8.489   5.145  1.00 20.00     0.040 C 
HETATM    9  N9  UNL     1     -31.747   4.702   0.896  1.00 20.00    -0.197 NA
HETATM   10  O10 UNL     1     -34.508   6.536   4.316  1.00 20.00    -0.380 OA
ENDROOT
TORSDOF 0
