REMARK  1 active torsions:
REMARK  status: ('A' for Active; 'I' for Inactive)
REMARK    1  A    between atoms: C4_4  and  C6_6 
ROOT
HETATM    1  C5  UNL     1     -32.610   8.343   1.898  1.00 20.00     0.001 C 
HETATM    2  C6  UNL     1     -32.987   7.074   1.673  1.00 20.00    -0.048 C 
HETATM    3  C7  UNL     1     -32.731   6.696   0.240  1.00 20.00     0.041 C 
HETATM    4  C8  UNL     1     -32.531   8.051  -0.440  1.00 20.00     0.028 C 
HETATM    5  C9  UNL     1     -32.059   8.988   0.669  1.00 20.00     0.106 C 
HETATM    6 CL11 UNL     1     -32.687  10.628   0.450  1.00 20.00    -0.121 Cl
ENDROOT
BRANCH   2   7
HETATM    7  C4  UNL     1     -33.533   6.125   2.658  1.00 20.00    -0.006 A 
HETATM    8  C1  UNL     1     -34.708   6.248   3.437  1.00 20.00     0.038 A 
HETATM    9  C2  UNL     1     -34.783   5.106   4.199  1.00 20.00     0.142 A 
HETATM   10  O10 UNL     1     -33.729   4.288   3.939  1.00 20.00    -0.334 OA
HETATM   11  C3  UNL     1     -32.973   4.916   3.000  1.00 20.00     0.153 A 
ENDBRANCH   2   7
TORSDOF 1
