REMARK  1 active torsions:
REMARK  status: ('A' for Active; 'I' for Inactive)
REMARK    1  A    between atoms: C2_2  and  C10_10 
ROOT
HETATM    1  C1  UNL     1     -33.060   7.360   2.989  1.00 20.00    -0.004 C 
HETATM    2  C2  UNL     1     -32.425   7.098   1.840  1.00 20.00    -0.078 C 
HETATM    3  C3  UNL     1     -32.832   5.773   1.275  1.00 20.00     0.036 C 
HETATM    4  C4  UNL     1     -34.089   5.438   2.079  1.00 20.00     0.028 C 
HETATM    5  C9  UNL     1     -33.976   6.247   3.373  1.00 20.00     0.105 C 
HETATM    6 CL12 UNL     1     -35.552   6.850   3.908  1.00 20.00    -0.121 Cl
ENDROOT
BRANCH   2   7
HETATM    7  C10 UNL     1     -31.382   7.963   1.151  1.00 20.00     0.018 C 
HETATM    8  C5  UNL     1     -31.438   7.721  -0.352  1.00 20.00     0.035 C 
HETATM    9  C7  UNL     1     -32.606   8.441  -1.018  1.00 20.00     0.168 C 
HETATM   10  O11 UNL     1     -32.611   9.825  -0.678  1.00 20.00    -0.391 OA
HETATM   11  C8  UNL     1     -32.790  10.029   0.722  1.00 20.00     0.168 C 
HETATM   12  C6  UNL     1     -31.633   9.423   1.510  1.00 20.00     0.035 C 
ENDBRANCH   2   7
TORSDOF 1
