REMARK  1 active torsions:
REMARK  status: ('A' for Active; 'I' for Inactive)
REMARK    1  A    between atoms: C2_2  and  C9_9 
ROOT
HETATM    1  C1  UNL     1     -33.476   6.035   2.465  1.00 20.00    -0.004 C 
HETATM    2  C2  UNL     1     -33.276   7.260   2.968  1.00 20.00    -0.076 C 
HETATM    3  C3  UNL     1     -34.384   7.663   3.891  1.00 20.00     0.036 C 
HETATM    4  C4  UNL     1     -35.470   6.632   3.574  1.00 20.00     0.028 C 
HETATM    5  C8  UNL     1     -34.743   5.428   2.969  1.00 20.00     0.105 C 
HETATM    6 CL11 UNL     1     -34.370   4.201   4.199  1.00 20.00    -0.121 Cl
ENDROOT
BRANCH   2   7
HETATM    7  C9  UNL     1     -32.104   8.160   2.717  1.00 20.00     0.040 C 
HETATM    8  C5  UNL     1     -31.131   7.587   1.707  1.00 20.00     0.037 C 
HETATM    9  C6  UNL     1     -31.722   8.019   0.380  1.00 20.00     0.168 C 
HETATM   10  O10 UNL     1     -32.433   9.240   0.618  1.00 20.00    -0.390 OA
HETATM   11  C7  UNL     1     -32.528   9.452   2.035  1.00 20.00     0.176 C 
ENDBRANCH   2   7
TORSDOF 1
