REMARK  1 active torsions:
REMARK  status: ('A' for Active; 'I' for Inactive)
REMARK    1  A    between atoms: C2_2  and  C11_11 
ROOT
HETATM    1  C1  UNL     1     -33.399   6.705   2.633  1.00 20.00     0.053 C 
HETATM    2  C2  UNL     1     -32.625   7.771   2.377  1.00 20.00    -0.072 C 
HETATM    3  C3  UNL     1     -34.228   6.650   3.863  1.00 20.00     0.149 C 
HETATM    4  C4  UNL     1     -32.492   8.933   3.327  1.00 20.00     0.035 C 
HETATM    5  C5  UNL     1     -34.252   7.859   4.769  1.00 20.00     0.083 C 
HETATM    6  C6  UNL     1     -32.914   8.578   4.750  1.00 20.00     0.012 C 
HETATM    7  O12 UNL     1     -34.922   5.660   4.088  1.00 20.00    -0.293 OA
ENDROOT
BRANCH   2   8
HETATM    8  C11 UNL     1     -31.825   7.873   1.091  1.00 20.00     0.014 C 
HETATM    9  C9  UNL     1     -31.710   9.345   0.706  1.00 20.00     0.009 C 
HETATM   10  C7  UNL     1     -32.812   9.562  -0.321  1.00 20.00     0.001 C 
HETATM   11  C8  UNL     1     -32.816   8.259  -1.100  1.00 20.00     0.001 C 
HETATM   12  C10 UNL     1     -32.597   7.188  -0.037  1.00 20.00     0.009 C 
ENDBRANCH   2   8
TORSDOF 1
