REMARK  1 active torsions:
REMARK  status: ('A' for Active; 'I' for Inactive)
REMARK    1  A    between atoms: C2_2  and  C10_10 
ROOT
HETATM    1  C1  UNL     1     -32.756   8.229   2.421  1.00 20.00    -0.003 C 
HETATM    2  C2  UNL     1     -33.321   7.014   2.536  1.00 20.00    -0.075 C 
HETATM    3  C3  UNL     1     -33.141   5.943   1.489  1.00 20.00     0.034 C 
HETATM    4  C4  UNL     1     -32.544   6.453   0.175  1.00 20.00     0.006 C 
HETATM    5  C5  UNL     1     -31.408   7.440   0.430  1.00 20.00     0.024 C 
HETATM    6  C6  UNL     1     -31.870   8.631   1.277  1.00 20.00     0.105 C 
HETATM    7 CL11 UNL     1     -32.762   9.810   0.266  1.00 20.00    -0.121 Cl
ENDROOT
BRANCH   2   8
HETATM    8  C10 UNL     1     -34.166   6.644   3.720  1.00 20.00    -0.028 C 
HETATM    9  C7  UNL     1     -33.531   5.444   4.439  1.00 20.00     0.019 C 
HETATM   10  C8  UNL     1     -35.581   6.270   3.251  1.00 20.00     0.019 C 
HETATM   11  C9  UNL     1     -34.253   7.834   4.688  1.00 20.00     0.019 C 
ENDBRANCH   2   8
TORSDOF 1
