REMARK  0 active torsions:
REMARK  status: ('A' for Active; 'I' for Inactive)
ROOT
HETATM    1  C1  UNL     1     -35.193   5.604   4.194  1.00 20.00     0.067 C 
HETATM    2  C2  UNL     1     -34.551   6.581   3.311  1.00 20.00     0.127 C 
HETATM    3  C3  UNL     1     -33.472   6.016   2.383  1.00 20.00     0.030 C 
HETATM    4  C4  UNL     1     -33.862   7.761   4.011  1.00 20.00     0.136 C 
HETATM    5  C5  UNL     1     -32.734   7.307   2.021  1.00 20.00     0.123 C 
HETATM    6  C6  UNL     1     -32.571   4.954   3.023  1.00 20.00     0.014 C 
HETATM    7  C7  UNL     1     -33.436   7.561   5.459  1.00 20.00     0.041 C 
HETATM    8  C8  UNL     1     -31.334   7.160   1.452  1.00 20.00     0.040 C 
HETATM    9  N9  UNL     1     -35.702   4.831   4.893  1.00 20.00    -0.197 NA
HETATM   10  O10 UNL     1     -32.681   8.065   3.239  1.00 20.00    -0.380 OA
ENDROOT
TORSDOF 0
