REMARK  1 active torsions:
REMARK  status: ('A' for Active; 'I' for Inactive)
REMARK    1  A    between atoms: C2_2  and  C8_8 
ROOT
HETATM    1  C1  UNL     1     -33.518   7.829   3.012  1.00 20.00    -0.004 C 
HETATM    2  C2  UNL     1     -33.613   6.519   2.749  1.00 20.00    -0.079 C 
HETATM    3  C3  UNL     1     -32.590   6.084   1.746  1.00 20.00     0.036 C 
HETATM    4  C4  UNL     1     -31.623   7.270   1.725  1.00 20.00     0.028 C 
HETATM    5  C5  UNL     1     -32.421   8.474   2.231  1.00 20.00     0.105 C 
HETATM    6 CL9  UNL     1     -33.113   9.413   0.891  1.00 20.00    -0.121 Cl
ENDROOT
BRANCH   2   7
HETATM    7  C8  UNL     1     -34.601   5.563   3.310  1.00 20.00     0.006 C 
HETATM    8  C6  UNL     1     -33.894   4.420   4.043  1.00 20.00     0.014 C 
HETATM    9  C7  UNL     1     -35.586   6.268   4.247  1.00 20.00     0.014 C 
ENDBRANCH   2   7
TORSDOF 1
