REMARK  2 active torsions:
REMARK  status: ('A' for Active; 'I' for Inactive)
REMARK    1  A    between atoms: C2_2  and  C9_9 
REMARK    2  A    between atoms: C4_4  and  C9_9 
ROOT
HETATM    1  C1  UNL     1     -33.322   4.582   2.721  1.00 20.00    -0.004 C 
HETATM    2  C2  UNL     1     -33.350   5.920   2.563  1.00 20.00    -0.079 C 
HETATM    3  C5  UNL     1     -34.298   6.780   3.372  1.00 20.00     0.034 C 
HETATM    4  C6  UNL     1     -35.408   5.990   4.070  1.00 20.00     0.006 C 
HETATM    5  C7  UNL     1     -34.842   4.744   4.743  1.00 20.00     0.024 C 
HETATM    6  C8  UNL     1     -34.173   3.836   3.708  1.00 20.00     0.105 C 
HETATM    7 CL10 UNL     1     -33.186   2.606   4.549  1.00 20.00    -0.121 Cl
ENDROOT
BRANCH   2   8
HETATM    8  C9  UNL     1     -32.504   6.644   1.583  1.00 20.00     0.060 C 
BRANCH   8   9
HETATM    9  C4  UNL     1     -32.183   8.031   2.041  1.00 20.00    -0.033 C 
HETATM   10  C3  UNL     1     -32.524   9.137   1.369  1.00 20.00     0.007 C 
ENDBRANCH   8   9
ENDBRANCH   2   8
TORSDOF 2
