REMARK  2 active torsions:
REMARK  status: ('A' for Active; 'I' for Inactive)
REMARK    1  A    between atoms: C4_4  and  C9_9 
REMARK    2  A    between atoms: C8_8  and  O10_10 
ROOT
HETATM    1  C1  UNL     1     -32.272   9.984   0.049  1.00 20.00     0.012 C 
HETATM    2  C2  UNL     1     -32.125   8.828   0.335  1.00 20.00    -0.113 C 
HETATM    3  C9  UNL     1     -31.935   7.417   0.665  1.00 20.00     0.127 C 
ENDROOT
BRANCH   3   4
HETATM    4  C4  UNL     1     -32.604   7.111   1.973  1.00 20.00    -0.070 C 
HETATM    5  C3  UNL     1     -32.706   8.029   2.951  1.00 20.00     0.008 C 
HETATM    6  C8  UNL     1     -33.338   7.753   4.284  1.00 20.00     0.141 C 
HETATM    7  C7  UNL     1     -33.541   6.260   4.554  1.00 20.00     0.036 C 
HETATM    8  C6  UNL     1     -34.094   5.553   3.325  1.00 20.00     0.007 C 
HETATM    9  C5  UNL     1     -33.152   5.714   2.128  1.00 20.00     0.035 C 
BRANCH   6  10
HETATM   10  O10 UNL     1     -32.507   8.300   5.305  1.00 20.00    -0.392 OA
HETATM   11  H22 UNL     1     -32.943   8.105   6.149  1.00 20.00     0.210 HD
ENDBRANCH   6  10
ENDBRANCH   3   4
TORSDOF 2
