REMARK  1 active torsions:
REMARK  status: ('A' for Active; 'I' for Inactive)
REMARK    1  A    between atoms: C2_2  and  C8_8 
ROOT
HETATM    1  C1  UNL     1     -33.344   7.692   3.005  1.00 20.00     0.018 C 
HETATM    2  C2  UNL     1     -33.184   6.172   3.105  1.00 20.00     0.034 C 
HETATM    3  C3  UNL     1     -32.408   7.983   1.829  1.00 20.00     0.122 C 
HETATM    4  C4  UNL     1     -32.966   5.724   1.652  1.00 20.00     0.123 C 
HETATM    5  C5  UNL     1     -34.782   8.167   2.792  1.00 20.00     0.013 C 
HETATM    6  C6  UNL     1     -32.602   9.306   1.111  1.00 20.00     0.040 C 
HETATM    7  C7  UNL     1     -34.138   5.057   0.948  1.00 20.00     0.040 C 
HETATM    8  O9  UNL     1     -32.605   6.902   0.904  1.00 20.00    -0.381 OA
ENDROOT
BRANCH   2   9
HETATM    9  C8  UNL     1     -34.247   5.424   3.896  1.00 20.00     0.122 C 
HETATM   10 CL10 UNL     1     -33.635   3.834   4.383  1.00 20.00    -0.130 Cl
ENDBRANCH   2   9
TORSDOF 1
