REMARK  1 active torsions:
REMARK  status: ('A' for Active; 'I' for Inactive)
REMARK    1  A    between atoms: C3_3  and  C5_5 
ROOT
HETATM    1  C1  UNL     1     -34.834   4.225   5.082  1.00 20.00     0.109 A 
HETATM    2  C2  UNL     1     -35.881   5.057   4.804  1.00 20.00     0.107 A 
HETATM    3  C3  UNL     1     -34.188   5.627   3.495  1.00 20.00     0.113 A 
HETATM    4  C10 UNL     1     -32.494   3.970   4.227  1.00 20.00     0.157 C 
HETATM    5  N11 UNL     1     -33.800   4.599   4.257  1.00 20.00    -0.346 N 
HETATM    6  N12 UNL     1     -35.453   5.915   3.819  1.00 20.00    -0.350 N 
HETATM    7  H27 UNL     1     -36.013   6.653   3.401  1.00 20.00     0.166 HD
ENDROOT
BRANCH   3   8
HETATM    8  C5  UNL     1     -33.383   6.335   2.471  1.00 20.00    -0.016 C 
HETATM    9  C4  UNL     1     -33.131   7.654   2.580  1.00 20.00     0.004 C 
HETATM   10  C9  UNL     1     -32.337   8.441   1.576  1.00 20.00     0.105 C 
HETATM   11  C8  UNL     1     -32.091   7.683   0.267  1.00 20.00     0.024 C 
HETATM   12 CL13 UNL     1     -30.777   8.892   2.335  1.00 20.00    -0.121 Cl
HETATM   13  C7  UNL     1     -31.749   6.218   0.522  1.00 20.00     0.006 C 
HETATM   14  C6  UNL     1     -32.871   5.526   1.300  1.00 20.00     0.042 C 
ENDBRANCH   3   8
TORSDOF 1
