REMARK  1 active torsions:
REMARK  status: ('A' for Active; 'I' for Inactive)
REMARK    1  A    between atoms: C2_2  and  C10_10 
ROOT
HETATM    1  C1  UNL     1     -33.550   6.316   2.174  1.00 20.00    -0.003 C 
HETATM    2  C2  UNL     1     -33.212   7.589   2.459  1.00 20.00    -0.075 C 
HETATM    3  C3  UNL     1     -33.853   8.325   3.617  1.00 20.00     0.034 C 
HETATM    4  C4  UNL     1     -34.607   7.420   4.595  1.00 20.00     0.006 C 
HETATM    5  C5  UNL     1     -35.448   6.390   3.847  1.00 20.00     0.024 C 
HETATM    6  C6  UNL     1     -34.588   5.528   2.918  1.00 20.00     0.105 C 
HETATM    7 CL11 UNL     1     -33.751   4.248   3.852  1.00 20.00    -0.121 Cl
ENDROOT
BRANCH   2   8
HETATM    8  C10 UNL     1     -32.193   8.354   1.701  1.00 20.00    -0.028 C 
HETATM    9  C7  UNL     1     -31.051   8.756   2.647  1.00 20.00     0.019 C 
HETATM   10  C8  UNL     1     -32.829   9.618   1.102  1.00 20.00     0.019 C 
HETATM   11  C9  UNL     1     -31.631   7.486   0.562  1.00 20.00     0.019 C 
ENDBRANCH   2   8
TORSDOF 1
