REMARK  2 active torsions:
REMARK  status: ('A' for Active; 'I' for Inactive)
REMARK    1  A    between atoms: C3_3  and  C8_8 
REMARK    2  A    between atoms: C8_8  and  C9_9 
ROOT
HETATM    1  C1  UNL     1     -34.022   6.852   3.404  1.00 20.00     0.044 A 
HETATM    2  C2  UNL     1     -33.610   5.605   2.985  1.00 20.00     0.005 A 
HETATM    3  C3  UNL     1     -32.572   7.478   1.883  1.00 20.00     0.081 A 
HETATM    4  C4  UNL     1     -35.025   7.129   4.453  1.00 20.00     0.071 C 
HETATM    5  C5  UNL     1     -34.028   4.263   3.438  1.00 20.00     0.058 C 
HETATM    6  N10 UNL     1     -33.428   7.928   2.773  1.00 20.00    -0.249 NA
HETATM    7  S11 UNL     1     -32.431   5.773   1.750  1.00 20.00    -0.077 SA
ENDROOT
BRANCH   3   8
HETATM    8  C8  UNL     1     -31.717   8.364   0.985  1.00 20.00     0.059 C 
HETATM    9  C6  UNL     1     -30.745   9.173   1.859  1.00 20.00     0.018 C 
BRANCH   8  10
HETATM   10  C9  UNL     1     -32.572   9.265   0.055  1.00 20.00     0.088 C 
HETATM   11  C7  UNL     1     -31.781   9.829  -1.125  1.00 20.00     0.027 C 
HETATM   12 CL12 UNL     1     -33.250  10.659   0.968  1.00 20.00    -0.125 Cl
ENDBRANCH   8  10
ENDBRANCH   3   8
TORSDOF 2
