REMARK  2 active torsions:
REMARK  status: ('A' for Active; 'I' for Inactive)
REMARK    1  A    between atoms: C4_4  and  C12_12 
REMARK    2  A    between atoms: C11_11  and  C12_12 
ROOT
HETATM    1  C1  UNL     1     -33.310  10.320  -0.485  1.00 20.00     0.012 C 
HETATM    2  C2  UNL     1     -32.223   9.906  -0.188  1.00 20.00    -0.117 C 
HETATM    3  C11 UNL     1     -30.890   9.398   0.172  1.00 20.00     0.097 C 
ENDROOT
BRANCH   3   4
HETATM    4  C12 UNL     1     -30.832   8.920   1.615  1.00 20.00     0.046 C 
BRANCH   4   5
HETATM    5  C4  UNL     1     -31.802   7.795   1.841  1.00 20.00    -0.075 C 
HETATM    6  C3  UNL     1     -32.755   7.877   2.781  1.00 20.00     0.053 C 
HETATM    7  C5  UNL     1     -33.741   6.783   2.954  1.00 20.00     0.150 C 
HETATM    8  C7  UNL     1     -33.705   5.612   1.995  1.00 20.00     0.092 C 
HETATM    9  O13 UNL     1     -34.602   6.873   3.828  1.00 20.00    -0.293 OA
HETATM   10  C8  UNL     1     -32.285   5.305   1.491  1.00 20.00    -0.037 C 
HETATM   11  C6  UNL     1     -31.638   6.596   0.941  1.00 20.00     0.043 C 
HETATM   12  C9  UNL     1     -32.362   4.259   0.365  1.00 20.00     0.015 C 
HETATM   13  C10 UNL     1     -31.429   4.715   2.632  1.00 20.00     0.015 C 
ENDBRANCH   4   5
ENDBRANCH   3   4
TORSDOF 2
