REMARK  1 active torsions:
REMARK  status: ('A' for Active; 'I' for Inactive)
REMARK    1  A    between atoms: C2_2  and  C8_8 
ROOT
HETATM    1  C1  UNL     1     -33.700   7.935   2.743  1.00 20.00     0.053 C 
HETATM    2  C2  UNL     1     -32.673   7.971   1.881  1.00 20.00    -0.072 C 
HETATM    3  C3  UNL     1     -34.180   6.644   3.292  1.00 20.00     0.150 C 
HETATM    4  C4  UNL     1     -31.974   6.729   1.384  1.00 20.00     0.043 C 
HETATM    5  C5  UNL     1     -33.436   5.376   2.929  1.00 20.00     0.092 C 
HETATM    6  C9  UNL     1     -32.814   5.439   1.524  1.00 20.00    -0.037 C 
HETATM    7  C10 UNL     1     -33.919   5.393   0.447  1.00 20.00     0.015 C 
HETATM    8  C11 UNL     1     -31.899   4.218   1.319  1.00 20.00     0.015 C 
HETATM    9  O12 UNL     1     -35.129   6.631   4.075  1.00 20.00    -0.293 OA
ENDROOT
BRANCH   2  10
HETATM   10  C8  UNL     1     -32.139   9.274   1.361  1.00 20.00     0.014 A 
HETATM   11  C6  UNL     1     -32.074   9.462  -0.115  1.00 20.00     0.010 A 
HETATM   12  C7  UNL     1     -33.094  10.203   0.696  1.00 20.00     0.010 A 
ENDBRANCH   2  10
TORSDOF 1
