REMARK  0 active torsions:
REMARK  status: ('A' for Active; 'I' for Inactive)
ROOT
HETATM    1  C1  UNL     1     -31.576   7.214   1.558  1.00 20.00     0.019 A 
HETATM    2  C2  UNL     1     -31.208   8.333   0.844  1.00 20.00     0.050 A 
HETATM    3  C3  UNL     1     -33.468   8.544   1.789  1.00 20.00     0.061 A 
HETATM    4  C4  UNL     1     -32.886   7.337   2.105  1.00 20.00    -0.023 A 
HETATM    5  C5  UNL     1     -34.757   6.406   3.424  1.00 20.00     0.058 A 
HETATM    6  C6  UNL     1     -33.533   6.356   2.881  1.00 20.00    -0.043 A 
HETATM    7  C7  UNL     1     -34.956   5.135   4.133  1.00 20.00     0.150 A 
HETATM    8  C8  UNL     1     -32.806   5.068   3.168  1.00 20.00     0.047 A 
HETATM    9  C9  UNL     1     -33.763   4.240   4.017  1.00 20.00     0.087 A 
HETATM   10  O10 UNL     1     -35.980   4.862   4.740  1.00 20.00    -0.293 OA
HETATM   11  S11 UNL     1     -32.438   9.524   0.835  1.00 20.00    -0.113 SA
ENDROOT
TORSDOF 0
