REMARK  4 active torsions:
REMARK  status: ('A' for Active; 'I' for Inactive)
REMARK    1  A    between atoms: C2_2  and  C8_8 
REMARK    2  A    between atoms: C8_8  and  C11_11 
REMARK    3  A    between atoms: C9_9  and  C10_10 
REMARK    4  A    between atoms: C10_10  and  C11_11 
ROOT
HETATM    1  C1  UNL     1     -33.858   5.982   2.525  1.00 20.00    -0.004 C 
HETATM    2  C2  UNL     1     -33.623   7.199   3.031  1.00 20.00    -0.082 C 
HETATM    3  C3  UNL     1     -34.409   7.435   4.283  1.00 20.00     0.036 C 
HETATM    4  C4  UNL     1     -35.438   6.302   4.246  1.00 20.00     0.028 C 
HETATM    5  C5  UNL     1     -34.834   5.214   3.354  1.00 20.00     0.105 C 
HETATM    6 CL12 UNL     1     -33.973   3.987   4.309  1.00 20.00    -0.121 Cl
ENDROOT
BRANCH   2   7
HETATM    7  C8  UNL     1     -32.692   8.226   2.498  1.00 20.00     0.038 C 
BRANCH   7   8
HETATM    8  C11 UNL     1     -31.866   7.778   1.276  1.00 20.00    -0.015 C 
HETATM    9  C7  UNL     1     -30.720   6.847   1.690  1.00 20.00     0.010 C 
BRANCH   8  10
HETATM   10  C10 UNL     1     -31.310   8.943   0.431  1.00 20.00     0.004 C 
BRANCH  10  11
HETATM   11  C9  UNL     1     -32.386   9.920  -0.048  1.00 20.00    -0.004 C 
HETATM   12  C6  UNL     1     -31.787  11.037  -0.890  1.00 20.00     0.005 C 
ENDBRANCH  10  11
ENDBRANCH   8  10
ENDBRANCH   7   8
ENDBRANCH   2   7
TORSDOF 4
