REMARK  2 active torsions:
REMARK  status: ('A' for Active; 'I' for Inactive)
REMARK    1  A    between atoms: C4_4  and  C10_10 
REMARK    2  A    between atoms: C9_9  and  C10_10 
ROOT
HETATM    1  C1  UNL     1     -33.397   3.078   3.811  1.00 20.00     0.012 C 
HETATM    2  C2  UNL     1     -34.079   3.910   4.345  1.00 20.00    -0.117 C 
HETATM    3  C9  UNL     1     -34.914   4.927   5.002  1.00 20.00     0.097 C 
ENDROOT
BRANCH   3   4
HETATM    4  C10 UNL     1     -35.389   5.994   4.025  1.00 20.00     0.046 C 
BRANCH   4   5
HETATM    5  C4  UNL     1     -34.236   6.677   3.391  1.00 20.00    -0.081 C 
HETATM    6  C3  UNL     1     -33.627   6.226   2.277  1.00 20.00    -0.004 C 
HETATM    7  C8  UNL     1     -32.459   6.907   1.624  1.00 20.00     0.105 C 
HETATM    8  C7  UNL     1     -32.218   8.328   2.140  1.00 20.00     0.024 C 
HETATM    9 CL11 UNL     1     -32.699   6.952  -0.147  1.00 20.00    -0.121 Cl
HETATM   10  C6  UNL     1     -32.347   8.372   3.658  1.00 20.00     0.006 C 
HETATM   11  C5  UNL     1     -33.743   7.923   4.096  1.00 20.00     0.034 C 
ENDBRANCH   4   5
ENDBRANCH   3   4
TORSDOF 2
