REMARK  1 active torsions:
REMARK  status: ('A' for Active; 'I' for Inactive)
REMARK    1  A    between atoms: C2_2  and  C10_10 
ROOT
HETATM    1  C1  UNL     1     -33.589   5.825   2.800  1.00 20.00    -0.004 C 
HETATM    2  C2  UNL     1     -33.446   7.157   2.939  1.00 20.00    -0.076 C 
HETATM    3  C3  UNL     1     -34.254   7.925   3.964  1.00 20.00     0.034 C 
HETATM    4  C4  UNL     1     -34.937   7.043   5.012  1.00 20.00     0.006 C 
HETATM    5  C5  UNL     1     -35.581   5.823   4.362  1.00 20.00     0.024 C 
HETATM    6  C9  UNL     1     -34.555   4.989   3.588  1.00 20.00     0.105 C 
HETATM    7 CL12 UNL     1     -33.612   3.961   4.713  1.00 20.00    -0.121 Cl
ENDROOT
BRANCH   2   8
HETATM    8  C10 UNL     1     -32.491   7.969   2.135  1.00 20.00     0.040 C 
HETATM    9  C6  UNL     1     -31.729   7.167   1.098  1.00 20.00     0.037 C 
HETATM   10  C7  UNL     1     -31.274   8.248   0.143  1.00 20.00     0.168 C 
HETATM   11  O11 UNL     1     -32.307   9.241   0.132  1.00 20.00    -0.390 OA
HETATM   12  C8  UNL     1     -33.158   9.029   1.270  1.00 20.00     0.176 C 
ENDBRANCH   2   8
TORSDOF 1
