REMARK  1 active torsions:
REMARK  status: ('A' for Active; 'I' for Inactive)
REMARK    1  A    between atoms: C6_6  and  O11_11 
ROOT
HETATM    1  C1  UNL     1     -33.601   2.964   4.533  1.00 20.00     0.095 C 
HETATM    2  C2  UNL     1     -35.061   4.844   4.338  1.00 20.00     0.022 C 
HETATM    3  C3  UNL     1     -33.886   4.269   4.032  1.00 20.00     0.021 C 
HETATM    4  C4  UNL     1     -32.861   4.958   3.164  1.00 20.00     0.058 C 
HETATM    5  C5  UNL     1     -34.346   6.997   3.179  1.00 20.00     0.045 C 
HETATM    6  C6  UNL     1     -35.464   6.219   3.886  1.00 20.00     0.143 C 
HETATM    7  C7  UNL     1     -33.432   6.110   2.299  1.00 20.00    -0.041 C 
HETATM    8  C8  UNL     1     -32.267   6.965   1.764  1.00 20.00     0.015 C 
HETATM    9  C9  UNL     1     -34.198   5.544   1.087  1.00 20.00     0.015 C 
HETATM   10  N10 UNL     1     -33.370   1.903   4.940  1.00 20.00    -0.192 NA
ENDROOT
BRANCH   6  11
HETATM   11  O11 UNL     1     -36.587   6.115   3.013  1.00 20.00    -0.392 OA
HETATM   12  H24 UNL     1     -37.296   5.695   3.525  1.00 20.00     0.210 HD
ENDBRANCH   6  11
TORSDOF 1
