REMARK  0 active torsions:
REMARK  status: ('A' for Active; 'I' for Inactive)
ROOT
HETATM    1  C1  UNL     1     -32.627   9.460   1.173  1.00 20.00     0.064 C 
HETATM    2  C2  UNL     1     -33.305   7.918   2.996  1.00 20.00     0.020 C 
HETATM    3  C3  UNL     1     -33.379   6.425   2.668  1.00 20.00     0.017 C 
HETATM    4  C4  UNL     1     -31.496   7.278   1.488  1.00 20.00     0.035 C 
HETATM    5  C5  UNL     1     -32.141   8.490   2.169  1.00 20.00     0.094 C 
HETATM    6  C6  UNL     1     -32.644   6.292   1.348  1.00 20.00     0.059 C 
HETATM    7  N7  UNL     1     -33.009  10.224   0.389  1.00 20.00    -0.197 NA
HETATM    8 BR8  UNL     1     -32.006   4.491   1.064  1.00 20.00    -0.091 Br
ENDROOT
TORSDOF 0
