REMARK  1 active torsions:
REMARK  status: ('A' for Active; 'I' for Inactive)
REMARK    1  A    between atoms: C4_4  and  C7_7 
ROOT
HETATM    1  C1  UNL     1     -31.806   6.777   0.961  1.00 20.00     0.034 A 
HETATM    2  C2  UNL     1     -32.716   5.777   1.410  1.00 20.00     0.026 A 
HETATM    3  C3  UNL     1     -31.933   7.949   1.672  1.00 20.00    -0.019 A 
HETATM    4  C4  UNL     1     -33.504   6.223   2.448  1.00 20.00     0.018 A 
HETATM    5  C5  UNL     1     -31.177   9.210   1.512  1.00 20.00     0.056 C 
HETATM    6  S8  UNL     1     -33.146   7.842   2.876  1.00 20.00    -0.097 SA
HETATM    7 BR10 UNL     1     -32.780   4.063   0.628  1.00 20.00    -0.050 Br
ENDROOT
BRANCH   4   8
HETATM    8  C7  UNL     1     -34.564   5.505   3.192  1.00 20.00     0.119 C 
HETATM    9  C6  UNL     1     -35.228   6.321   4.315  1.00 20.00     0.032 C 
HETATM   10 CL9  UNL     1     -33.921   3.977   3.889  1.00 20.00    -0.120 Cl
ENDBRANCH   4   8
TORSDOF 1
