REMARK  0 active torsions:
REMARK  status: ('A' for Active; 'I' for Inactive)
ROOT
HETATM    1  C1  UNL     1     -32.469   8.971   1.223  1.00 20.00     0.064 C 
HETATM    2  C2  UNL     1     -32.129   6.564   1.768  1.00 20.00     0.021 C 
HETATM    3  C3  UNL     1     -33.375   5.787   2.182  1.00 20.00     0.021 C 
HETATM    4  C4  UNL     1     -33.594   7.936   3.178  1.00 20.00     0.039 C 
HETATM    5  C5  UNL     1     -32.329   7.991   2.308  1.00 20.00     0.094 C 
HETATM    6  C6  UNL     1     -33.772   6.455   3.487  1.00 20.00     0.083 C 
HETATM    7  N7  UNL     1     -32.579   9.745   0.365  1.00 20.00    -0.197 NA
HETATM    8 CL8  UNL     1     -35.428   6.060   3.969  1.00 20.00    -0.125 Cl
ENDROOT
TORSDOF 0
