REMARK  0 active torsions:
REMARK  status: ('A' for Active; 'I' for Inactive)
ROOT
HETATM    1  C1  UNL     1     -33.559   3.943   4.108  1.00 20.00     0.064 C 
HETATM    2  C2  UNL     1     -34.753   6.120   4.040  1.00 20.00     0.021 C 
HETATM    3  C3  UNL     1     -34.038   7.381   3.557  1.00 20.00     0.021 C 
HETATM    4  C4  UNL     1     -33.115   5.585   2.302  1.00 20.00     0.039 C 
HETATM    5  C5  UNL     1     -34.166   4.953   3.225  1.00 20.00     0.094 C 
HETATM    6  C6  UNL     1     -32.711   6.862   3.028  1.00 20.00     0.083 C 
HETATM    7  N7  UNL     1     -33.081   3.148   4.804  1.00 20.00    -0.197 NA
HETATM    8 CL8  UNL     1     -31.914   8.022   1.956  1.00 20.00    -0.125 Cl
ENDROOT
TORSDOF 0
