REMARK  0 active torsions:
REMARK  status: ('A' for Active; 'I' for Inactive)
ROOT
HETATM    1  C1  UNL     1     -32.361   8.384   1.074  1.00 20.00     0.095 C 
HETATM    2  C2  UNL     1     -33.321   7.562   3.149  1.00 20.00     0.011 C 
HETATM    3  C3  UNL     1     -32.868   7.359   1.906  1.00 20.00     0.020 C 
HETATM    4  C4  UNL     1     -32.981   5.923   1.503  1.00 20.00     0.051 C 
HETATM    5  C5  UNL     1     -33.217   5.226   2.845  1.00 20.00     0.029 C 
HETATM    6  C6  UNL     1     -33.801   6.293   3.774  1.00 20.00     0.106 C 
HETATM    7  N7  UNL     1     -31.944   9.225   0.392  1.00 20.00    -0.192 NA
HETATM    8 CL8  UNL     1     -35.578   6.261   3.776  1.00 20.00    -0.121 Cl
ENDROOT
TORSDOF 0
