REMARK  2 active torsions:
REMARK  status: ('A' for Active; 'I' for Inactive)
REMARK    1  A    between atoms: C4_4  and  C5_5 
REMARK    2  A    between atoms: C4_4  and  C6_6 
ROOT
HETATM    1  C1  UNL     1     -33.672   5.587   2.950  1.00 20.00     0.063 C 
HETATM    2  C2  UNL     1     -32.035   5.222   1.158  1.00 20.00     0.025 C 
HETATM    3  C5  UNL     1     -33.180   6.106   1.659  1.00 20.00     0.090 C 
HETATM    4  N7  UNL     1     -34.060   5.179   3.965  1.00 20.00    -0.197 NA
ENDROOT
BRANCH   3   5
HETATM    5  C4  UNL     1     -32.701   7.567   1.790  1.00 20.00     0.034 C 
BRANCH   5   6
HETATM    6  C6  UNL     1     -32.701   8.367   0.480  1.00 20.00     0.055 C 
HETATM    7  C3  UNL     1     -32.776   9.865   0.742  1.00 20.00     0.022 C 
HETATM    8 BR8  UNL     1     -31.053   8.017  -0.524  1.00 20.00    -0.092 Br
ENDBRANCH   5   6
ENDBRANCH   3   5
TORSDOF 2
