REMARK  2 active torsions:
REMARK  status: ('A' for Active; 'I' for Inactive)
REMARK    1  A    between atoms: C4_4  and  C5_5 
REMARK    2  A    between atoms: C4_4  and  C6_6 
ROOT
HETATM    1  C1  UNL     1     -33.616   6.713   2.907  1.00 20.00     0.063 C 
HETATM    2  C2  UNL     1     -32.432   5.123   1.459  1.00 20.00     0.025 C 
HETATM    3  C5  UNL     1     -32.882   6.576   1.635  1.00 20.00     0.090 C 
HETATM    4  N7  UNL     1     -34.194   6.822   3.907  1.00 20.00    -0.197 NA
ENDROOT
BRANCH   3   5
HETATM    5  C4  UNL     1     -31.661   7.516   1.589  1.00 20.00     0.038 C 
BRANCH   5   6
HETATM    6  C6  UNL     1     -31.984   8.993   1.299  1.00 20.00     0.079 C 
HETATM    7  C3  UNL     1     -32.613   9.153  -0.080  1.00 20.00     0.026 C 
HETATM    8 CL8  UNL     1     -33.106   9.658   2.524  1.00 20.00    -0.125 Cl
ENDBRANCH   5   6
ENDBRANCH   3   5
TORSDOF 2
