REMARK  3 active torsions:
REMARK  status: ('A' for Active; 'I' for Inactive)
REMARK    1  A    between atoms: C4_4  and  C5_5 
REMARK    2  A    between atoms: C5_5  and  C7_7 
REMARK    3  A    between atoms: C6_6  and  C7_7 
ROOT
HETATM    1  C1  UNL     1     -32.404   9.450   0.520  1.00 20.00     0.059 C 
HETATM    2  C4  UNL     1     -32.093   8.175   1.182  1.00 20.00     0.125 C 
HETATM    3  N8  UNL     1     -32.648  10.456  -0.004  1.00 20.00    -0.197 NA
ENDROOT
BRANCH   2   4
HETATM    4  C5  UNL     1     -33.311   7.645   1.949  1.00 20.00     0.034 C 
BRANCH   4   5
HETATM    5  C7  UNL     1     -33.035   6.320   2.683  1.00 20.00     0.086 C 
HETATM    6 CL9  UNL     1     -32.422   5.088   1.531  1.00 20.00    -0.125 Cl
BRANCH   5   7
HETATM    7  C6  UNL     1     -34.273   5.804   3.461  1.00 20.00    -0.004 C 
HETATM    8  C2  UNL     1     -33.978   4.488   4.191  1.00 20.00     0.011 C 
HETATM    9  C3  UNL     1     -34.866   6.819   4.444  1.00 20.00     0.011 C 
ENDBRANCH   5   7
ENDBRANCH   4   5
ENDBRANCH   2   4
TORSDOF 3
