REMARK  2 active torsions:
REMARK  status: ('A' for Active; 'I' for Inactive)
REMARK    1  A    between atoms: C4_4  and  C5_5 
REMARK    2  A    between atoms: C4_4  and  C6_6 
ROOT
HETATM    1  C1  UNL     1     -34.041   4.266   3.839  1.00 20.00     0.063 C 
HETATM    2  C2  UNL     1     -35.593   6.075   4.424  1.00 20.00     0.025 C 
HETATM    3  C5  UNL     1     -34.649   5.520   3.355  1.00 20.00     0.090 C 
HETATM    4  N7  UNL     1     -33.563   3.278   4.217  1.00 20.00    -0.197 NA
ENDROOT
BRANCH   3   5
HETATM    5  C4  UNL     1     -33.571   6.568   3.010  1.00 20.00     0.038 C 
BRANCH   5   6
HETATM    6  C6  UNL     1     -32.940   6.420   1.615  1.00 20.00     0.079 C 
HETATM    7  C3  UNL     1     -32.203   5.091   1.487  1.00 20.00     0.026 C 
HETATM    8 CL8  UNL     1     -31.788   7.750   1.287  1.00 20.00    -0.125 Cl
ENDBRANCH   5   6
ENDBRANCH   3   5
TORSDOF 2
