REMARK  2 active torsions:
REMARK  status: ('A' for Active; 'I' for Inactive)
REMARK    1  A    between atoms: C5_5  and  C6_6 
REMARK    2  A    between atoms: C5_5  and  C7_7 
ROOT
HETATM    1  C1  UNL     1     -32.678   6.424   1.884  1.00 20.00     0.068 C 
HETATM    2  C3  UNL     1     -33.832   7.746   3.579  1.00 20.00     0.031 C 
HETATM    3  C4  UNL     1     -31.462   8.262   2.982  1.00 20.00     0.031 C 
HETATM    4  C7  UNL     1     -32.814   7.798   2.420  1.00 20.00     0.043 C 
HETATM    5  N8  UNL     1     -32.576   5.342   1.476  1.00 20.00    -0.196 NA
ENDROOT
BRANCH   4   6
HETATM    6  C5  UNL     1     -33.363   8.773   1.338  1.00 20.00     0.043 C 
BRANCH   6   7
HETATM    7  C6  UNL     1     -32.382   9.320   0.280  1.00 20.00     0.080 C 
HETATM    8  C2  UNL     1     -33.110  10.236  -0.701  1.00 20.00     0.026 C 
HETATM    9 CL9  UNL     1     -31.591   8.018  -0.651  1.00 20.00    -0.125 Cl
ENDBRANCH   6   7
ENDBRANCH   4   6
TORSDOF 2
