REMARK  0 active torsions:
REMARK  status: ('A' for Active; 'I' for Inactive)
ROOT
HETATM    1  C1  UNL     1     -34.245   5.071   3.831  1.00 20.00     0.071 C 
HETATM    2  C2  UNL     1     -33.353   5.958   1.698  1.00 20.00     0.052 C 
HETATM    3  C3  UNL     1     -32.681   7.269   1.345  1.00 20.00     0.169 C 
HETATM    4  C4  UNL     1     -33.082   7.254   3.644  1.00 20.00     0.192 C 
HETATM    5  C5  UNL     1     -34.064   6.275   3.005  1.00 20.00     0.069 C 
HETATM    6  C6  UNL     1     -35.424   6.940   2.755  1.00 20.00     0.033 C 
HETATM    7  N7  UNL     1     -34.387   4.122   4.482  1.00 20.00    -0.196 NA
HETATM    8  O8  UNL     1     -32.414   7.948   2.578  1.00 20.00    -0.389 OA
ENDROOT
TORSDOF 0
