REMARK  4 active torsions:
REMARK  status: ('A' for Active; 'I' for Inactive)
REMARK    1  A    between atoms: C2_2  and  C8_8 
REMARK    2  A    between atoms: C6_6  and  C9_9 
REMARK    3  A    between atoms: C8_8  and  C9_9 
REMARK    4  A    between atoms: C9_9  and  O11_11 
ROOT
HETATM    1  C1  UNL     1     -34.113   3.869   4.487  1.00 20.00    -0.111 C 
HETATM    2  C2  UNL     1     -34.604   4.938   4.240  1.00 20.00    -0.104 C 
HETATM    3  C7  UNL     1     -33.515   2.570   4.788  1.00 20.00     0.112 C 
ENDROOT
BRANCH   2   4
HETATM    4  C8  UNL     1     -35.208   6.245   3.937  1.00 20.00     0.128 C 
BRANCH   4   5
HETATM    5  C9  UNL     1     -34.151   7.351   3.901  1.00 20.00     0.158 C 
BRANCH   5   6
HETATM    6  C6  UNL     1     -32.856   6.854   3.273  1.00 20.00     0.151 C 
HETATM    7  C4  UNL     1     -31.938   7.984   2.832  1.00 20.00     0.036 C 
HETATM    8  C3  UNL     1     -32.339   8.198   1.394  1.00 20.00     0.029 C 
HETATM    9  C5  UNL     1     -32.655   6.789   0.947  1.00 20.00     0.168 C 
HETATM   10  O10 UNL     1     -33.186   6.105   2.090  1.00 20.00    -0.383 OA
ENDBRANCH   5   6
BRANCH   5  11
HETATM   11  O11 UNL     1     -33.876   7.768   5.238  1.00 20.00    -0.392 OA
HETATM   12  H25 UNL     1     -34.717   8.077   5.607  1.00 20.00     0.210 HD
ENDBRANCH   5  11
ENDBRANCH   4   5
ENDBRANCH   2   4
TORSDOF 4
