REMARK  5 active torsions:
REMARK  status: ('A' for Active; 'I' for Inactive)
REMARK    1  A    between atoms: C1_1  and  C6_6 
REMARK    2  A    between atoms: C1_1  and  C10_10 
REMARK    3  A    between atoms: C7_7  and  C11_11 
REMARK    4  A    between atoms: C10_10  and  C13_13 
REMARK    5  A    between atoms: C12_12  and  C13_13 
ROOT
HETATM    1  C2  UNL     1     -34.422   7.324   4.172  1.00 20.00     0.001 C 
HETATM    2  C3  UNL     1     -33.198   7.733   3.357  1.00 20.00     0.012 C 
HETATM    3  C4  UNL     1     -34.357   5.855   4.586  1.00 20.00     0.005 C 
HETATM    4  C5  UNL     1     -32.927   5.350   2.564  1.00 20.00     0.016 C 
HETATM    5  C6  UNL     1     -33.007   6.817   2.154  1.00 20.00     0.056 C 
HETATM    6  C7  UNL     1     -34.162   4.931   3.376  1.00 20.00    -0.014 C 
ENDROOT
BRANCH   5   7
HETATM    7  C1  UNL     1     -31.688   7.186   1.502  1.00 20.00     0.131 C 
HETATM    8  O14 UNL     1     -30.764   6.374   1.374  1.00 20.00    -0.298 OA
BRANCH   7   9
HETATM    9  C10 UNL     1     -31.557   8.619   1.006  1.00 20.00     0.079 C 
BRANCH   9  10
HETATM   10  C13 UNL     1     -32.623   8.991  -0.022  1.00 20.00     0.007 C 
BRANCH  10  11
HETATM   11  C12 UNL     1     -32.483  10.446  -0.466  1.00 20.00    -0.004 C 
HETATM   12  C9  UNL     1     -32.588  11.401   0.712  1.00 20.00     0.005 C 
ENDBRANCH  10  11
ENDBRANCH   9  10
ENDBRANCH   7   9
ENDBRANCH   5   7
BRANCH   6  13
HETATM   13  C11 UNL     1     -34.047   3.475   3.822  1.00 20.00     0.000 C 
HETATM   14  C8  UNL     1     -32.866   3.262   4.711  1.00 20.00     0.005 C 
ENDBRANCH   6  13
TORSDOF 5
