REMARK  3 active torsions:
REMARK  status: ('A' for Active; 'I' for Inactive)
REMARK    1  A    between atoms: C1_1  and  C7_7 
REMARK    2  A    between atoms: C1_1  and  C8_8 
REMARK    3  A    between atoms: C9_9  and  C11_11 
ROOT
HETATM    1  C4  UNL     1     -32.669   6.241   1.578  1.00 20.00     0.013 C 
HETATM    2  C5  UNL     1     -32.291   7.436   0.707  1.00 20.00     0.005 C 
HETATM    3  C6  UNL     1     -32.224   8.217   2.956  1.00 20.00     0.016 C 
HETATM    4  C8  UNL     1     -32.550   6.727   3.023  1.00 20.00     0.056 C 
HETATM    5  C9  UNL     1     -32.669   8.644   1.556  1.00 20.00    -0.014 C 
ENDROOT
BRANCH   4   6
HETATM    6  C1  UNL     1     -33.886   6.551   3.721  1.00 20.00     0.135 C 
HETATM    7  O12 UNL     1     -34.519   7.513   4.154  1.00 20.00    -0.297 OA
BRANCH   6   8
HETATM    8  C7  UNL     1     -34.399   5.143   3.856  1.00 20.00     0.056 A 
HETATM    9  C2  UNL     1     -33.410   4.033   3.853  1.00 20.00     0.013 A 
HETATM   10  C3  UNL     1     -34.116   4.414   5.120  1.00 20.00     0.013 A 
ENDBRANCH   6   8
ENDBRANCH   4   6
BRANCH   5  11
HETATM   11  C11 UNL     1     -32.016   9.933   1.089  1.00 20.00     0.000 C 
HETATM   12  C10 UNL     1     -32.435  10.301  -0.300  1.00 20.00     0.005 C 
ENDBRANCH   5  11
TORSDOF 3
