REMARK  5 active torsions:
REMARK  status: ('A' for Active; 'I' for Inactive)
REMARK    1  A    between atoms: C1_1  and  C5_5 
REMARK    2  A    between atoms: C1_1  and  C9_9 
REMARK    3  A    between atoms: C6_6  and  C10_10 
REMARK    4  A    between atoms: C9_9  and  C12_12 
REMARK    5  A    between atoms: C11_11  and  C12_12 
ROOT
HETATM    1  C2  UNL     1     -35.134   6.446   3.340  1.00 20.00     0.012 C 
HETATM    2  C3  UNL     1     -34.863   5.718   4.650  1.00 20.00     0.005 C 
HETATM    3  C4  UNL     1     -33.263   4.881   3.072  1.00 20.00     0.016 C 
HETATM    4  C5  UNL     1     -33.932   6.115   2.452  1.00 20.00     0.056 C 
HETATM    5  C6  UNL     1     -34.206   4.422   4.187  1.00 20.00    -0.014 C 
ENDROOT
BRANCH   4   6
HETATM    6  C1  UNL     1     -32.970   7.263   2.416  1.00 20.00     0.131 C 
HETATM    7  O13 UNL     1     -32.847   8.053   3.358  1.00 20.00    -0.298 OA
BRANCH   6   8
HETATM    8  C9  UNL     1     -32.140   7.409   1.148  1.00 20.00     0.079 C 
BRANCH   8   9
HETATM    9  C12 UNL     1     -31.742   8.855   0.863  1.00 20.00     0.007 C 
BRANCH   9  10
HETATM   10  C11 UNL     1     -32.970   9.739   0.651  1.00 20.00    -0.004 C 
HETATM   11  C8  UNL     1     -32.577  11.172   0.329  1.00 20.00     0.005 C 
ENDBRANCH   9  10
ENDBRANCH   8   9
ENDBRANCH   6   8
ENDBRANCH   4   6
BRANCH   5  12
HETATM   12  C10 UNL     1     -33.495   3.679   5.305  1.00 20.00     0.000 C 
HETATM   13  C7  UNL     1     -32.832   2.431   4.815  1.00 20.00     0.005 C 
ENDBRANCH   5  12
TORSDOF 5
