REMARK  4 active torsions:
REMARK  status: ('A' for Active; 'I' for Inactive)
REMARK    1  A    between atoms: C6_6  and  C10_10 
REMARK    2  A    between atoms: C7_7  and  C11_11 
REMARK    3  A    between atoms: C9_9  and  C11_11 
REMARK    4  A    between atoms: C11_11  and  O12_12 
ROOT
HETATM    1  C1  UNL     1     -32.771   9.696   0.131  1.00 20.00     0.012 C 
HETATM    2  C2  UNL     1     -32.512   9.007   1.079  1.00 20.00    -0.115 C 
HETATM    3  C9  UNL     1     -32.191   8.162   2.241  1.00 20.00     0.125 C 
ENDROOT
BRANCH   3   4
HETATM    4  C11 UNL     1     -33.405   7.981   3.157  1.00 20.00     0.133 C 
BRANCH   4   5
HETATM    5  C7  UNL     1     -34.384   6.958   2.583  1.00 20.00     0.015 C 
HETATM    6  C4  UNL     1     -35.634   6.815   3.456  1.00 20.00     0.007 C 
HETATM    7  C3  UNL     1     -35.396   5.611   4.372  1.00 20.00     0.005 C 
HETATM    8  C6  UNL     1     -34.036   5.028   3.977  1.00 20.00    -0.014 C 
HETATM    9  C5  UNL     1     -33.805   5.543   2.558  1.00 20.00     0.012 C 
BRANCH   8  10
HETATM   10  C10 UNL     1     -33.984   3.512   4.075  1.00 20.00     0.000 C 
HETATM   11  C8  UNL     1     -32.652   2.971   3.662  1.00 20.00     0.005 C 
ENDBRANCH   8  10
ENDBRANCH   4   5
BRANCH   4  12
HETATM   12  O12 UNL     1     -34.075   9.236   3.280  1.00 20.00    -0.394 OA
HETATM   13  H30 UNL     1     -34.360   9.482   2.388  1.00 20.00     0.210 HD
ENDBRANCH   4  12
ENDBRANCH   3   4
TORSDOF 4
