REMARK  5 active torsions:
REMARK  status: ('A' for Active; 'I' for Inactive)
REMARK    1  A    between atoms: C6_6  and  C8_8 
REMARK    2  A    between atoms: C7_7  and  C11_11 
REMARK    3  A    between atoms: C8_8  and  C10_10 
REMARK    4  A    between atoms: C9_9  and  C10_10 
REMARK    5  A    between atoms: C9_9  and  C11_11 
ROOT
HETATM    1  C1  UNL     1     -31.756   6.447   1.538  1.00 20.00     0.069 C 
HETATM    2  C5  UNL     1     -30.871   8.668   2.112  1.00 20.00     0.031 C 
HETATM    3  C11 UNL     1     -32.145   7.819   1.944  1.00 20.00     0.045 C 
HETATM    4  N12 UNL     1     -31.453   5.375   1.212  1.00 20.00    -0.196 NA
ENDROOT
BRANCH   3   5
HETATM    5  C7  UNL     1     -32.977   8.454   0.786  1.00 20.00     0.020 C 
HETATM    6  C3  UNL     1     -32.256   8.572  -0.555  1.00 20.00     0.007 C 
ENDBRANCH   3   5
BRANCH   3   7
HETATM    7  C9  UNL     1     -32.990   7.791   3.252  1.00 20.00     0.028 C 
BRANCH   7   8
HETATM    8  C10 UNL     1     -33.972   6.611   3.493  1.00 20.00    -0.017 C 
HETATM    9  C4  UNL     1     -34.923   7.003   4.636  1.00 20.00     0.010 C 
BRANCH   8  10
HETATM   10  C8  UNL     1     -33.252   5.280   3.790  1.00 20.00     0.004 C 
BRANCH  10  11
HETATM   11  C6  UNL     1     -34.143   4.220   4.444  1.00 20.00    -0.004 C 
HETATM   12  C2  UNL     1     -33.379   2.926   4.684  1.00 20.00     0.005 C 
ENDBRANCH  10  11
ENDBRANCH   8  10
ENDBRANCH   7   8
ENDBRANCH   3   7
TORSDOF 5
