REMARK  3 active torsions:
REMARK  status: ('A' for Active; 'I' for Inactive)
REMARK    1  A    between atoms: C5_5  and  C9_9 
REMARK    2  A    between atoms: C6_6  and  C10_10 
REMARK    3  A    between atoms: C10_10  and  C11_11 
ROOT
HETATM    1  C1  UNL     1     -31.993   6.209   1.558  1.00 20.00     0.069 C 
HETATM    2  C2  UNL     1     -30.816   9.111   1.390  1.00 20.00     0.006 C 
HETATM    3  C3  UNL     1     -31.194   8.296   2.632  1.00 20.00     0.025 C 
HETATM    4  C4  UNL     1     -33.139   8.390   1.253  1.00 20.00     0.029 C 
HETATM    5  C5  UNL     1     -32.009   9.019   0.429  1.00 20.00    -0.013 C 
HETATM    6  C6  UNL     1     -32.415   7.456   2.231  1.00 20.00     0.049 C 
HETATM    7  N12 UNL     1     -31.662   5.230   1.030  1.00 20.00    -0.196 NA
ENDROOT
BRANCH   6   8
HETATM    8  C10 UNL     1     -33.287   7.106   3.436  1.00 20.00     0.024 C 
BRANCH   8   9
HETATM    9  C11 UNL     1     -34.550   6.367   3.006  1.00 20.00    -0.003 C 
HETATM   10  C8  UNL     1     -35.406   5.996   4.206  1.00 20.00     0.005 C 
ENDBRANCH   8   9
ENDBRANCH   6   8
BRANCH   5  11
HETATM   11  C9  UNL     1     -32.396  10.361  -0.173  1.00 20.00     0.000 C 
HETATM   12  C7  UNL     1     -31.276  10.964  -0.960  1.00 20.00     0.005 C 
ENDBRANCH   5  11
TORSDOF 3
