REMARK  3 active torsions:
REMARK  status: ('A' for Active; 'I' for Inactive)
REMARK    1  A    between atoms: C6_6  and  C11_11 
REMARK    2  A    between atoms: C7_7  and  C12_12 
REMARK    3  A    between atoms: C12_12  and  C13_13 
ROOT
HETATM    1  C1  UNL     1     -33.639   7.842   4.072  1.00 20.00     0.069 C 
HETATM    2  C2  UNL     1     -35.698   5.628   4.344  1.00 20.00     0.002 C 
HETATM    3  C3  UNL     1     -34.544   4.844   4.970  1.00 20.00     0.005 C 
HETATM    4  C4  UNL     1     -35.323   6.356   3.048  1.00 20.00     0.024 C 
HETATM    5  C5  UNL     1     -32.887   5.637   3.214  1.00 20.00     0.029 C 
HETATM    6  C6  UNL     1     -33.512   4.419   3.925  1.00 20.00    -0.013 C 
HETATM    7  C7  UNL     1     -33.858   6.830   3.011  1.00 20.00     0.050 C 
HETATM    8  N14 UNL     1     -33.468   8.634   4.903  1.00 20.00    -0.196 NA
ENDROOT
BRANCH   7   9
HETATM    9  C12 UNL     1     -33.570   7.503   1.657  1.00 20.00     0.028 C 
BRANCH   9  10
HETATM   10  C13 UNL     1     -32.407   8.497   1.720  1.00 20.00    -0.021 C 
HETATM   11  C9  UNL     1     -31.094   7.841   2.151  1.00 20.00     0.009 C 
HETATM   12  C10 UNL     1     -32.231   9.154   0.349  1.00 20.00     0.009 C 
ENDBRANCH   9  10
ENDBRANCH   7   9
BRANCH   6  13
HETATM   13  C11 UNL     1     -32.427   3.542   4.548  1.00 20.00     0.000 C 
HETATM   14  C8  UNL     1     -33.005   2.325   5.192  1.00 20.00     0.005 C 
ENDBRANCH   6  13
TORSDOF 3
