REMARK  2 active torsions:
REMARK  status: ('A' for Active; 'I' for Inactive)
REMARK    1  A    between atoms: C3_3  and  C8_8 
REMARK    2  A    between atoms: C3_3  and  C9_9 
ROOT
HETATM    1  C1  UNL     1     -35.405   5.840   4.075  1.00 20.00     0.012 C 
HETATM    2  C2  UNL     1     -34.515   6.543   3.683  1.00 20.00    -0.110 C 
HETATM    3  C9  UNL     1     -33.429   7.409   3.210  1.00 20.00     0.171 C 
ENDROOT
BRANCH   3   4
HETATM    4  C3  UNL     1     -32.758   6.870   1.962  1.00 20.00     0.142 C 
HETATM    5  O10 UNL     1     -33.113   5.834   1.402  1.00 20.00    -0.297 OA
BRANCH   4   6
HETATM    6  C8  UNL     1     -31.598   7.690   1.421  1.00 20.00     0.060 C 
HETATM    7  C4  UNL     1     -31.500   7.492  -0.087  1.00 20.00     0.038 C 
HETATM    8  C6  UNL     1     -32.545   8.297  -0.853  1.00 20.00     0.168 C 
HETATM    9  O11 UNL     1     -32.509   9.670  -0.469  1.00 20.00    -0.391 OA
HETATM   10  C7  UNL     1     -32.831   9.846   0.909  1.00 20.00     0.168 C 
HETATM   11  C5  UNL     1     -31.805   9.152   1.799  1.00 20.00     0.038 C 
ENDBRANCH   4   6
ENDBRANCH   3   4
TORSDOF 2
