REMARK  3 active torsions:
REMARK  status: ('A' for Active; 'I' for Inactive)
REMARK    1  A    between atoms: C3_3  and  C7_7 
REMARK    2  A    between atoms: C3_3  and  C9_9 
REMARK    3  A    between atoms: C8_8  and  C9_9 
ROOT
HETATM    1  C1  UNL     1     -32.243  10.552  -0.565  1.00 20.00     0.012 C 
HETATM    2  C2  UNL     1     -32.066   9.462  -0.093  1.00 20.00    -0.117 C 
HETATM    3  C8  UNL     1     -31.847   8.127   0.483  1.00 20.00     0.100 C 
ENDROOT
BRANCH   3   4
HETATM    4  C9  UNL     1     -32.984   7.714   1.414  1.00 20.00     0.091 C 
BRANCH   4   5
HETATM    5  C3  UNL     1     -32.792   6.345   2.050  1.00 20.00     0.134 C 
HETATM    6  O10 UNL     1     -32.155   5.440   1.512  1.00 20.00    -0.297 OA
BRANCH   5   7
HETATM    7  C7  UNL     1     -33.417   6.152   3.417  1.00 20.00     0.081 C 
HETATM    8  C4  UNL     1     -33.872   4.718   3.568  1.00 20.00     0.040 C 
HETATM    9  C5  UNL     1     -35.201   4.854   4.272  1.00 20.00     0.168 C 
HETATM   10  O11 UNL     1     -35.771   6.061   3.761  1.00 20.00    -0.390 OA
HETATM   11  C6  UNL     1     -34.690   6.974   3.524  1.00 20.00     0.179 C 
ENDBRANCH   5   7
ENDBRANCH   4   5
ENDBRANCH   3   4
TORSDOF 3
