REMARK  1 active torsions:
REMARK  status: ('A' for Active; 'I' for Inactive)
REMARK    1  A    between atoms: C1_1  and  N10_10 
ROOT
HETATM    1  C2  UNL     1     -32.019   6.975   0.466  1.00 20.00     0.002 C 
HETATM    2  C3  UNL     1     -34.107   8.034   4.679  1.00 20.00     0.020 C 
HETATM    3  C4  UNL     1     -32.480   8.269   1.153  1.00 20.00     0.007 C 
HETATM    4  C5  UNL     1     -33.793   8.716   3.345  1.00 20.00     0.008 C 
HETATM    5  C6  UNL     1     -32.456   5.817   1.379  1.00 20.00     0.026 C 
HETATM    6  C7  UNL     1     -34.623   6.602   4.504  1.00 20.00     0.125 C 
HETATM    7  C8  UNL     1     -32.856   7.818   2.557  1.00 20.00     0.009 C 
HETATM    8  C9  UNL     1     -33.493   6.452   2.302  1.00 20.00     0.090 C 
HETATM    9  N10 UNL     1     -33.837   5.800   3.559  1.00 20.00    -0.354 N 
ENDROOT
BRANCH   9  10
HETATM   10  C1  UNL     1     -33.769   4.425   3.727  1.00 20.00     0.351 C 
HETATM   11  O11 UNL     1     -34.306   3.756   4.604  1.00 20.00    -0.284 OA
ENDBRANCH   9  10
TORSDOF 1
