REMARK  0 active torsions:
REMARK  status: ('A' for Active; 'I' for Inactive)
ROOT
HETATM    1  C1  UNL     1     -32.786   5.511   1.152  1.00 20.00     0.071 C 
HETATM    2  C2  UNL     1     -35.340   5.983   3.596  1.00 20.00     0.034 C 
HETATM    3  C3  UNL     1     -34.011   5.274   3.852  1.00 20.00     0.036 C 
HETATM    4  C4  UNL     1     -34.293   7.403   1.800  1.00 20.00     0.058 C 
HETATM    5  C5  UNL     1     -34.881   7.389   3.214  1.00 20.00     0.123 C 
HETATM    6  C6  UNL     1     -32.991   6.365   3.509  1.00 20.00     0.144 C 
HETATM    7  C7  UNL     1     -32.931   6.703   2.003  1.00 20.00     0.074 C 
HETATM    8  C8  UNL     1     -31.776   7.673   1.713  1.00 20.00     0.034 C 
HETATM    9  N9  UNL     1     -32.672   4.572   0.481  1.00 20.00    -0.196 NA
HETATM   10  O10 UNL     1     -33.691   7.529   4.023  1.00 20.00    -0.379 OA
ENDROOT
TORSDOF 0
