REMARK  2 active torsions:
REMARK  status: ('A' for Active; 'I' for Inactive)
REMARK    1  A    between atoms: C9_9  and  C10_10 
REMARK    2  A    between atoms: C9_9  and  N11_11 
ROOT
HETATM    1  C1  UNL     1     -34.583   7.895   4.410  1.00 20.00     0.002 C 
HETATM    2  C2  UNL     1     -31.683   5.501   1.396  1.00 20.00     0.028 C 
HETATM    3  C3  UNL     1     -34.478   6.432   3.945  1.00 20.00     0.007 C 
HETATM    4  C4  UNL     1     -32.991   5.271   2.159  1.00 20.00     0.008 C 
HETATM    5  C5  UNL     1     -33.526   8.682   3.615  1.00 20.00     0.034 C 
HETATM    6  C6  UNL     1     -31.589   6.896   0.774  1.00 20.00     0.235 C 
HETATM    7  C7  UNL     1     -33.172   6.392   3.165  1.00 20.00     0.016 C 
HETATM    8  C8  UNL     1     -33.188   7.745   2.467  1.00 20.00     0.192 C 
HETATM    9  N11 UNL     1     -31.859   7.973   1.816  1.00 20.00    -0.065 N 
HETATM   10  H31 UNL     1     -31.130   7.889   2.537  1.00 20.00     0.280 HD
ENDROOT
BRANCH   9  11
HETATM   11  C9  UNL     1     -31.721   9.346   1.218  1.00 20.00     0.250 C 
BRANCH  11  12
HETATM   12  C10 UNL     1     -32.702   9.517   0.073  1.00 20.00     0.142 C 
HETATM   13 CL12 UNL     1     -32.594  11.143  -0.644  1.00 20.00    -0.129 Cl
ENDBRANCH  11  12
ENDBRANCH   9  11
TORSDOF 2
