REMARK  3 active torsions:
REMARK  status: ('A' for Active; 'I' for Inactive)
REMARK    1  A    between atoms: C1_1  and  C7_7 
REMARK    2  A    between atoms: C1_1  and  C9_9 
REMARK    3  A    between atoms: C8_8  and  C9_9 
ROOT
HETATM    1  C1  UNL     1     -32.521   6.793   1.860  1.00 20.00     0.155 C 
HETATM    2  O10 UNL     1     -32.135   5.638   1.686  1.00 20.00    -0.295 OA
ENDROOT
BRANCH   1   3
HETATM    3  C7  UNL     1     -33.883   7.076   2.400  1.00 20.00     0.190 C 
HETATM    4  C3  UNL     1     -33.850   7.743   3.761  1.00 20.00     0.042 C 
HETATM    5  C2  UNL     1     -35.019   7.099   4.465  1.00 20.00     0.029 C 
HETATM    6  C6  UNL     1     -34.973   5.691   3.918  1.00 20.00     0.168 C 
HETATM    7  O11 UNL     1     -34.522   5.803   2.562  1.00 20.00    -0.378 OA
ENDBRANCH   1   3
BRANCH   1   8
HETATM    8  C9  UNL     1     -31.662   8.004   1.547  1.00 20.00     0.085 C 
BRANCH   8   9
HETATM    9  C8  UNL     1     -32.481   9.205   1.112  1.00 20.00    -0.007 A 
HETATM   10  C4  UNL     1     -31.833  10.330   0.352  1.00 20.00     0.005 A 
HETATM   11  C5  UNL     1     -32.804   9.415  -0.341  1.00 20.00     0.005 A 
ENDBRANCH   8   9
ENDBRANCH   1   8
TORSDOF 3
