REMARK  2 active torsions:
REMARK  status: ('A' for Active; 'I' for Inactive)
REMARK    1  A    between atoms: C5_5  and  C9_9 
REMARK    2  A    between atoms: C6_6  and  C10_10 
ROOT
HETATM    1  C1  UNL     1     -33.658   6.575   2.827  1.00 20.00     0.069 C 
HETATM    2  C2  UNL     1     -31.139   8.721   1.128  1.00 20.00     0.006 C 
HETATM    3  C3  UNL     1     -31.615   7.889   2.322  1.00 20.00     0.025 C 
HETATM    4  C4  UNL     1     -33.363   7.819   0.704  1.00 20.00     0.029 C 
HETATM    5  C5  UNL     1     -32.203   8.559   0.033  1.00 20.00    -0.013 C 
HETATM    6  C6  UNL     1     -32.695   6.947   1.776  1.00 20.00     0.049 C 
HETATM    7  N11 UNL     1     -34.416   6.283   3.656  1.00 20.00    -0.196 NA
ENDROOT
BRANCH   6   8
HETATM    8  C10 UNL     1     -32.079   5.674   1.178  1.00 20.00     0.020 C 
HETATM    9  C8  UNL     1     -33.120   4.791   0.575  1.00 20.00     0.007 C 
ENDBRANCH   6   8
BRANCH   5  10
HETATM   10  C9  UNL     1     -32.628   9.883  -0.584  1.00 20.00     0.000 C 
HETATM   11  C7  UNL     1     -33.202  10.816   0.435  1.00 20.00     0.005 C 
ENDBRANCH   5  10
TORSDOF 2
