REMARK  3 active torsions:
REMARK  status: ('A' for Active; 'I' for Inactive)
REMARK    1  A    between atoms: C3_3  and  C7_7 
REMARK    2  A    between atoms: C3_3  and  C10_10 
REMARK    3  A    between atoms: C8_8  and  C11_11 
ROOT
HETATM    1  C1  UNL     1     -33.515   3.211   4.482  1.00 20.00     0.012 C 
HETATM    2  C2  UNL     1     -34.183   4.168   4.198  1.00 20.00    -0.110 C 
HETATM    3  C10 UNL     1     -35.005   5.332   3.852  1.00 20.00     0.171 C 
ENDROOT
BRANCH   3   4
HETATM    4  C3  UNL     1     -34.183   6.483   3.307  1.00 20.00     0.142 C 
HETATM    5  O12 UNL     1     -33.679   7.347   4.023  1.00 20.00    -0.297 OA
BRANCH   4   6
HETATM    6  C7  UNL     1     -34.005   6.521   1.790  1.00 20.00     0.057 C 
HETATM    7  C4  UNL     1     -32.728   5.816   1.339  1.00 20.00     0.013 C 
HETATM    8  C5  UNL     1     -31.636   6.861   1.533  1.00 20.00     0.005 C 
HETATM    9  C8  UNL     1     -32.310   8.197   1.234  1.00 20.00    -0.014 C 
HETATM   10  C6  UNL     1     -33.819   7.951   1.272  1.00 20.00     0.016 C 
BRANCH   9  11
HETATM   11  C11 UNL     1     -31.913   8.639  -0.162  1.00 20.00     0.000 C 
HETATM   12  C9  UNL     1     -32.568   9.928  -0.549  1.00 20.00     0.005 C 
ENDBRANCH   9  11
ENDBRANCH   4   6
ENDBRANCH   3   4
TORSDOF 3
