REMARK  3 active torsions:
REMARK  status: ('A' for Active; 'I' for Inactive)
REMARK    1  A    between atoms: C6_6  and  C10_10 
REMARK    2  A    between atoms: C7_7  and  C11_11 
REMARK    3  A    between atoms: C11_11  and  C12_12 
ROOT
HETATM    1  C1  UNL     1     -34.726   6.056   3.151  1.00 20.00     0.069 C 
HETATM    2  C2  UNL     1     -32.353   7.980   2.621  1.00 20.00     0.006 C 
HETATM    3  C3  UNL     1     -33.567   7.246   0.533  1.00 20.00     0.006 C 
HETATM    4  C4  UNL     1     -32.294   6.528   3.102  1.00 20.00     0.025 C 
HETATM    5  C5  UNL     1     -33.513   5.791   1.007  1.00 20.00     0.025 C 
HETATM    6  C6  UNL     1     -32.401   8.069   1.091  1.00 20.00    -0.015 C 
HETATM    7  C7  UNL     1     -33.436   5.654   2.542  1.00 20.00     0.049 C 
HETATM    8  N13 UNL     1     -35.736   6.371   3.628  1.00 20.00    -0.196 NA
ENDROOT
BRANCH   7   9
HETATM    9  C11 UNL     1     -33.177   4.182   2.908  1.00 20.00     0.024 C 
BRANCH   9  10
HETATM   10  C12 UNL     1     -33.067   4.011   4.416  1.00 20.00    -0.003 C 
HETATM   11  C9  UNL     1     -32.834   2.553   4.779  1.00 20.00     0.005 C 
ENDBRANCH   9  10
ENDBRANCH   7   9
BRANCH   6  12
HETATM   12  C10 UNL     1     -32.504   9.525   0.639  1.00 20.00     0.000 C 
HETATM   13  C8  UNL     1     -32.512   9.640  -0.850  1.00 20.00     0.005 C 
ENDBRANCH   6  12
TORSDOF 3
