REMARK  3 active torsions:
REMARK  status: ('A' for Active; 'I' for Inactive)
REMARK    1  A    between atoms: C6_6  and  C9_9 
REMARK    2  A    between atoms: C9_9  and  C11_11 
REMARK    3  A    between atoms: C10_10  and  C11_11 
ROOT
HETATM    1  C1  UNL     1     -33.724   7.578   4.407  1.00 20.00     0.069 C 
HETATM    2  C2  UNL     1     -35.011   4.747   4.277  1.00 20.00     0.006 C 
HETATM    3  C3  UNL     1     -35.242   5.936   3.355  1.00 20.00     0.025 C 
HETATM    4  C4  UNL     1     -32.847   5.472   3.438  1.00 20.00     0.029 C 
HETATM    5  C5  UNL     1     -33.657   4.219   3.812  1.00 20.00    -0.017 C 
HETATM    6  C6  UNL     1     -33.868   6.624   3.284  1.00 20.00     0.049 C 
HETATM    7  C7  UNL     1     -32.971   3.348   4.851  1.00 20.00     0.010 C 
HETATM    8  N12 UNL     1     -33.612   8.325   5.287  1.00 20.00    -0.196 NA
ENDROOT
BRANCH   6   9
HETATM    9  C9  UNL     1     -33.686   7.377   1.965  1.00 20.00     0.024 C 
BRANCH   9  10
HETATM   10  C11 UNL     1     -32.324   8.059   1.903  1.00 20.00     0.001 C 
BRANCH  10  11
HETATM   11  C10 UNL     1     -32.159   8.836   0.597  1.00 20.00    -0.004 C 
HETATM   12  C8  UNL     1     -33.240   9.892   0.437  1.00 20.00     0.005 C 
ENDBRANCH  10  11
ENDBRANCH   9  10
ENDBRANCH   6   9
TORSDOF 3
