REMARK  3 active torsions:
REMARK  status: ('A' for Active; 'I' for Inactive)
REMARK    1  A    between atoms: C5_5  and  C9_9 
REMARK    2  A    between atoms: C6_6  and  C10_10 
REMARK    3  A    between atoms: C10_10  and  O11_11 
ROOT
HETATM    1  C1  UNL     1     -31.651   5.296   1.144  1.00 20.00     0.001 C 
HETATM    2  C2  UNL     1     -31.473   6.681   0.528  1.00 20.00     0.005 C 
HETATM    3  C3  UNL     1     -32.982   5.173   1.880  1.00 20.00     0.007 C 
HETATM    4  C4  UNL     1     -32.970   7.663   2.312  1.00 20.00     0.011 C 
HETATM    5  C5  UNL     1     -31.628   7.789   1.577  1.00 20.00    -0.014 C 
HETATM    6  C6  UNL     1     -33.147   6.272   2.937  1.00 20.00     0.014 C 
ENDROOT
BRANCH   6   7
HETATM    7  C10 UNL     1     -34.506   6.159   3.626  1.00 20.00     0.118 C 
HETATM    8  C8  UNL     1     -34.677   7.213   4.705  1.00 20.00     0.040 C 
BRANCH   7   9
HETATM    9  O11 UNL     1     -34.625   4.865   4.204  1.00 20.00    -0.396 OA
HETATM   10  H31 UNL     1     -35.496   4.829   4.631  1.00 20.00     0.210 HD
ENDBRANCH   7   9
ENDBRANCH   6   7
BRANCH   5  11
HETATM   11  C9  UNL     1     -31.497   9.166   0.928  1.00 20.00     0.000 C 
HETATM   12  C7  UNL     1     -32.561   9.399  -0.094  1.00 20.00     0.005 C 
ENDBRANCH   5  11
TORSDOF 3
