REMARK  3 active torsions:
REMARK  status: ('A' for Active; 'I' for Inactive)
REMARK    1  A    between atoms: C5_5  and  C7_7 
REMARK    2  A    between atoms: C6_6  and  C8_8 
REMARK    3  A    between atoms: C7_7  and  C8_8 
ROOT
HETATM    1  C1  UNL     1     -33.441   7.437   3.355  1.00 20.00     0.069 C 
HETATM    2  C4  UNL     1     -31.250   8.442   2.896  1.00 20.00     0.031 C 
HETATM    3  C8  UNL     1     -32.502   7.800   2.265  1.00 20.00     0.045 C 
HETATM    4  N9  UNL     1     -34.176   7.154   4.208  1.00 20.00    -0.196 NA
ENDROOT
BRANCH   3   5
HETATM    5  C6  UNL     1     -32.046   6.507   1.529  1.00 20.00     0.020 C 
HETATM    6  C3  UNL     1     -33.157   5.684   0.884  1.00 20.00     0.007 C 
ENDBRANCH   3   5
BRANCH   3   7
HETATM    7  C7  UNL     1     -33.193   8.776   1.274  1.00 20.00     0.024 C 
BRANCH   7   8
HETATM    8  C5  UNL     1     -32.344   9.200   0.066  1.00 20.00    -0.003 C 
HETATM    9  C2  UNL     1     -33.134  10.099  -0.874  1.00 20.00     0.005 C 
ENDBRANCH   7   8
ENDBRANCH   3   7
TORSDOF 3
