REMARK  2 active torsions:
REMARK  status: ('A' for Active; 'I' for Inactive)
REMARK    1  A    between atoms: C1_1  and  C7_7 
REMARK    2  A    between atoms: C6_6  and  C10_10 
ROOT
HETATM    1  C2  UNL     1     -31.882   5.927   1.686  1.00 20.00     0.002 C 
HETATM    2  C3  UNL     1     -33.265   5.806   2.323  1.00 20.00     0.005 C 
HETATM    3  C4  UNL     1     -31.789   7.143   0.766  1.00 20.00     0.020 C 
HETATM    4  C5  UNL     1     -33.576   8.308   2.131  1.00 20.00     0.025 C 
HETATM    5  C6  UNL     1     -33.669   7.088   3.063  1.00 20.00    -0.014 C 
HETATM    6  C7  UNL     1     -32.199   8.440   1.472  1.00 20.00     0.045 C 
HETATM    7  C8  UNL     1     -31.129   8.945   2.439  1.00 20.00     0.027 C 
ENDROOT
BRANCH   6   8
HETATM    8  C1  UNL     1     -32.307   9.487   0.367  1.00 20.00     0.181 C 
HETATM    9  O11 UNL     1     -32.639  10.643   0.749  1.00 20.00    -0.647 OA
HETATM   10  O12 UNL     1     -32.049   9.060  -0.794  1.00 20.00    -0.647 OA
ENDBRANCH   6   8
BRANCH   5  11
HETATM   11  C10 UNL     1     -35.080   6.955   3.636  1.00 20.00     0.000 C 
HETATM   12  C9  UNL     1     -35.188   5.795   4.569  1.00 20.00     0.005 C 
ENDBRANCH   5  11
TORSDOF 2
