REMARK  2 active torsions:
REMARK  status: ('A' for Active; 'I' for Inactive)
REMARK    1  A    between atoms: C6_6  and  C10_10 
REMARK    2  A    between atoms: C7_7  and  C11_11 
ROOT
HETATM    1  C1  UNL     1     -33.357   7.586   4.320  1.00 20.00     0.069 C 
HETATM    2  C2  UNL     1     -31.936   6.430   1.899  1.00 20.00     0.002 C 
HETATM    3  C3  UNL     1     -31.761   7.895   1.497  1.00 20.00     0.005 C 
HETATM    4  C4  UNL     1     -33.355   6.080   2.364  1.00 20.00     0.024 C 
HETATM    5  C5  UNL     1     -34.144   8.490   2.145  1.00 20.00     0.029 C 
HETATM    6  C6  UNL     1     -33.076   8.519   1.032  1.00 20.00    -0.013 C 
HETATM    7  C7  UNL     1     -34.076   7.245   3.068  1.00 20.00     0.049 C 
HETATM    8  N12 UNL     1     -32.794   7.853   5.299  1.00 20.00    -0.196 NA
ENDROOT
BRANCH   7   9
HETATM    9  C11 UNL     1     -35.501   6.810   3.452  1.00 20.00     0.020 C 
HETATM   10  C9  UNL     1     -35.479   5.625   4.352  1.00 20.00     0.007 C 
ENDBRANCH   7   9
BRANCH   6  11
HETATM   11  C10 UNL     1     -32.861   9.945   0.528  1.00 20.00     0.000 C 
HETATM   12  C8  UNL     1     -31.873   9.990  -0.591  1.00 20.00     0.005 C 
ENDBRANCH   6  11
TORSDOF 2
