REMARK  1 active torsions:
REMARK  status: ('A' for Active; 'I' for Inactive)
REMARK    1  A    between atoms: C5_5  and  C9_9 
ROOT
HETATM    1  C1  UNL     1     -33.940   6.449   2.998  1.00 20.00     0.069 C 
HETATM    2  C2  UNL     1     -31.129   8.588   1.831  1.00 20.00     0.006 C 
HETATM    3  C3  UNL     1     -31.798   7.697   2.880  1.00 20.00     0.024 C 
HETATM    4  C4  UNL     1     -33.304   7.825   1.037  1.00 20.00     0.029 C 
HETATM    5  C5  UNL     1     -32.034   8.555   0.591  1.00 20.00    -0.013 C 
HETATM    6  C6  UNL     1     -32.826   6.848   2.120  1.00 20.00     0.046 C 
HETATM    7  C7  UNL     1     -32.180   5.594   1.516  1.00 20.00     0.031 C 
HETATM    8  N10 UNL     1     -34.817   6.134   3.689  1.00 20.00    -0.196 NA
ENDROOT
BRANCH   5   9
HETATM    9  C9  UNL     1     -32.319   9.938   0.025  1.00 20.00     0.000 C 
HETATM   10  C8  UNL     1     -32.995  10.823   1.025  1.00 20.00     0.005 C 
ENDBRANCH   5   9
TORSDOF 1
