REMARK  2 active torsions:
REMARK  status: ('A' for Active; 'I' for Inactive)
REMARK    1  A    between atoms: C5_5  and  C8_8 
REMARK    2  A    between atoms: C8_8  and  C9_9 
ROOT
HETATM    1  C1  UNL     1     -32.283   8.721   0.336  1.00 20.00     0.068 C 
HETATM    2  C6  UNL     1     -30.997   7.190   1.772  1.00 20.00     0.031 C 
HETATM    3  C7  UNL     1     -32.984   6.380   0.495  1.00 20.00     0.031 C 
HETATM    4  C9  UNL     1     -32.398   7.577   1.270  1.00 20.00     0.046 C 
HETATM    5  N10 UNL     1     -32.191   9.615  -0.399  1.00 20.00    -0.196 NA
ENDROOT
BRANCH   4   6
HETATM    6  C8  UNL     1     -33.362   7.913   2.441  1.00 20.00     0.062 C 
BRANCH   6   7
HETATM    7  C5  UNL     1     -33.993   6.737   3.154  1.00 20.00    -0.050 A 
HETATM    8  C2  UNL     1     -35.307   6.754   3.706  1.00 20.00     0.014 A 
HETATM    9  C3  UNL     1     -35.634   5.555   4.299  1.00 20.00     0.050 A 
HETATM   10  S11 UNL     1     -34.361   4.415   4.190  1.00 20.00    -0.113 SA
HETATM   11  C4  UNL     1     -33.367   5.526   3.347  1.00 20.00     0.056 A 
ENDBRANCH   6   7
ENDBRANCH   4   6
TORSDOF 2
