REMARK  4 active torsions:
REMARK  status: ('A' for Active; 'I' for Inactive)
REMARK    1  A    between atoms: C6_6  and  C10_10 
REMARK    2  A    between atoms: C7_7  and  C11_11 
REMARK    3  A    between atoms: C9_9  and  C11_11 
REMARK    4  A    between atoms: C11_11  and  O12_12 
ROOT
HETATM    1  C1  UNL     1     -33.815   3.432   4.818  1.00 20.00     0.012 C 
HETATM    2  C2  UNL     1     -34.526   4.207   4.238  1.00 20.00    -0.115 C 
HETATM    3  C9  UNL     1     -35.401   5.153   3.526  1.00 20.00     0.125 C 
ENDROOT
BRANCH   3   4
HETATM    4  C11 UNL     1     -34.736   6.524   3.368  1.00 20.00     0.133 C 
BRANCH   4   5
HETATM    5  C7  UNL     1     -33.412   6.413   2.630  1.00 20.00     0.015 C 
HETATM    6  C4  UNL     1     -33.560   5.892   1.198  1.00 20.00     0.007 C 
HETATM    7  C3  UNL     1     -32.425   6.537   0.396  1.00 20.00     0.005 C 
HETATM    8  C6  UNL     1     -31.674   7.443   1.377  1.00 20.00    -0.014 C 
HETATM    9  C5  UNL     1     -32.709   7.755   2.454  1.00 20.00     0.012 C 
BRANCH   8  10
HETATM   10  C10 UNL     1     -31.097   8.687   0.723  1.00 20.00     0.000 C 
HETATM   11  C8  UNL     1     -32.157   9.526   0.083  1.00 20.00     0.005 C 
ENDBRANCH   8  10
ENDBRANCH   4   5
BRANCH   4  12
HETATM   12  O12 UNL     1     -34.492   7.065   4.667  1.00 20.00    -0.394 OA
HETATM   13  H30 UNL     1     -34.091   7.937   4.529  1.00 20.00     0.210 HD
ENDBRANCH   4  12
ENDBRANCH   3   4
TORSDOF 4
