REMARK  4 active torsions:
REMARK  status: ('A' for Active; 'I' for Inactive)
REMARK    1  A    between atoms: C5_5  and  C7_7 
REMARK    2  A    between atoms: C6_6  and  C7_7 
REMARK    3  A    between atoms: C6_6  and  C8_8 
REMARK    4  A    between atoms: C8_8  and  N9_9 
ROOT
HETATM    1  C1  UNL     1     -32.443   8.656   0.738  1.00 20.00     0.158 C 
HETATM    2  N9  UNL     1     -32.124   7.920   1.595  1.00 20.00    -0.271 NA
HETATM    3  S10 UNL     1     -32.853   9.675  -0.415  1.00 20.00    -0.055 SA
ENDROOT
BRANCH   2   4
HETATM    4  C8  UNL     1     -32.865   6.655   1.626  1.00 20.00     0.106 C 
HETATM    5  C4  UNL     1     -31.869   5.524   1.390  1.00 20.00     0.034 C 
BRANCH   4   6
HETATM    6  C6  UNL     1     -33.557   6.503   2.988  1.00 20.00     0.031 C 
BRANCH   6   7
HETATM    7  C7  UNL     1     -34.750   5.520   3.013  1.00 20.00    -0.017 C 
HETATM    8  C3  UNL     1     -35.696   5.799   4.187  1.00 20.00     0.010 C 
BRANCH   7   9
HETATM    9  C5  UNL     1     -34.277   4.053   3.092  1.00 20.00    -0.000 C 
HETATM   10  C2  UNL     1     -33.458   3.735   4.336  1.00 20.00     0.005 C 
ENDBRANCH   7   9
ENDBRANCH   6   7
ENDBRANCH   4   6
ENDBRANCH   2   4
TORSDOF 4
