REMARK  2 active torsions:
REMARK  status: ('A' for Active; 'I' for Inactive)
REMARK    1  A    between atoms: C1_1  and  C3_3 
REMARK    2  A    between atoms: C1_1  and  C9_9 
ROOT
HETATM    1  C1  UNL     1     -32.392   8.055   2.053  1.00 20.00     0.139 C 
HETATM    2  O10 UNL     1     -32.055   8.472   3.163  1.00 20.00    -0.297 OA
ENDROOT
BRANCH   1   3
HETATM    3  C3  UNL     1     -33.170   6.765   1.944  1.00 20.00     0.060 A 
HETATM    4  C2  UNL     1     -32.824   5.661   2.878  1.00 20.00     0.017 A 
HETATM    5  C4  UNL     1     -34.128   6.393   3.020  1.00 20.00    -0.007 A 
HETATM    6  C5  UNL     1     -34.383   7.235   4.224  1.00 20.00     0.011 C 
ENDBRANCH   1   3
BRANCH   1   7
HETATM    7  C9  UNL     1     -32.065   8.827   0.760  1.00 20.00     0.010 C 
HETATM    8  C6  UNL     1     -32.643   8.060  -0.435  1.00 20.00     0.022 C 
HETATM    9  C7  UNL     1     -30.549   8.997   0.597  1.00 20.00     0.022 C 
HETATM   10  C8  UNL     1     -32.710  10.223   0.820  1.00 20.00     0.022 C 
ENDBRANCH   1   7
TORSDOF 2
