REMARK  2 active torsions:
REMARK  status: ('A' for Active; 'I' for Inactive)
REMARK    1  A    between atoms: C2_2  and  C8_8 
REMARK    2  A    between atoms: C3_3  and  C5_5 
ROOT
HETATM    1  C1  UNL     1     -34.391   7.705   4.625  1.00 20.00     0.080 A 
HETATM    2  C2  UNL     1     -34.339   6.507   3.942  1.00 20.00     0.055 A 
HETATM    3  C3  UNL     1     -32.957   7.662   2.690  1.00 20.00     0.080 A 
HETATM    4  N9  UNL     1     -33.518   6.481   2.832  1.00 20.00    -0.248 NA
HETATM    5  S10 UNL     1     -33.373   8.850   3.856  1.00 20.00    -0.084 SA
ENDROOT
BRANCH   3   6
HETATM    6  C5  UNL     1     -31.980   7.962   1.539  1.00 20.00     0.049 A 
HETATM    7  C4  UNL     1     -31.271   9.298   1.527  1.00 20.00     0.016 A 
HETATM    8  C6  UNL     1     -32.318   9.008   0.493  1.00 20.00    -0.007 A 
HETATM    9  C7  UNL     1     -33.605   9.762   0.501  1.00 20.00     0.011 C 
ENDBRANCH   3   6
BRANCH   2  10
HETATM   10  C8  UNL     1     -35.077   5.279   4.298  1.00 20.00     0.174 C 
HETATM   11 CL11 UNL     1     -34.175   3.821   3.807  1.00 20.00    -0.124 Cl
ENDBRANCH   2  10
TORSDOF 2
