REMARK  3 active torsions:
REMARK  status: ('A' for Active; 'I' for Inactive)
REMARK    1  A    between atoms: C3_3  and  C5_5 
REMARK    2  A    between atoms: C3_3  and  C9_9 
REMARK    3  A    between atoms: C8_8  and  C9_9 
ROOT
HETATM    1  C1  UNL     1     -32.659  10.111  -0.576  1.00 20.00     0.012 C 
HETATM    2  C2  UNL     1     -32.437   9.210   0.186  1.00 20.00    -0.117 C 
HETATM    3  C8  UNL     1     -32.162   8.108   1.120  1.00 20.00     0.100 C 
ENDROOT
BRANCH   3   4
HETATM    4  C9  UNL     1     -32.972   6.858   0.783  1.00 20.00     0.090 C 
BRANCH   4   5
HETATM    5  C3  UNL     1     -32.734   5.696   1.735  1.00 20.00     0.132 C 
HETATM    6  O10 UNL     1     -32.277   4.614   1.371  1.00 20.00    -0.298 OA
BRANCH   5   7
HETATM    7  C5  UNL     1     -33.073   5.946   3.182  1.00 20.00     0.059 A 
HETATM    8  C4  UNL     1     -34.012   5.008   3.852  1.00 20.00     0.017 A 
HETATM    9  C6  UNL     1     -34.463   6.402   3.503  1.00 20.00    -0.007 A 
HETATM   10  C7  UNL     1     -34.663   7.416   4.575  1.00 20.00     0.011 C 
ENDBRANCH   5   7
ENDBRANCH   4   5
ENDBRANCH   3   4
TORSDOF 3
