REMARK  1 active torsions:
REMARK  status: ('A' for Active; 'I' for Inactive)
REMARK    1  A    between atoms: C3_3  and  C8_8 
ROOT
HETATM    1  C1  UNL     1     -31.661   7.198   1.589  1.00 20.00     0.285 C 
HETATM    2  C2  UNL     1     -32.389   8.541   1.557  1.00 20.00     0.073 C 
HETATM    3  C3  UNL     1     -33.706   6.451   2.485  1.00 20.00     0.289 C 
HETATM    4  C4  UNL     1     -32.179   9.293   0.255  1.00 20.00     0.023 C 
HETATM    5  N9  UNL     1     -32.254   6.419   2.678  1.00 20.00     0.099 N 
HETATM    6  S10 UNL     1     -34.130   8.083   1.797  1.00 20.00    -0.127 SA
HETATM    7  H27 UNL     1     -31.914   5.459   2.660  1.00 20.00     0.317 HD
ENDROOT
BRANCH   3   8
HETATM    8  C8  UNL     1     -34.421   6.215   3.806  1.00 20.00    -0.011 C 
HETATM    9  C5  UNL     1     -34.060   4.823   4.359  1.00 20.00     0.017 C 
HETATM   10  C6  UNL     1     -35.946   6.291   3.601  1.00 20.00     0.017 C 
HETATM   11  C7  UNL     1     -34.001   7.285   4.832  1.00 20.00     0.017 C 
ENDBRANCH   3   8
TORSDOF 1
