REMARK  2 active torsions:
REMARK  status: ('A' for Active; 'I' for Inactive)
REMARK    1  A    between atoms: C2_2  and  C9_9 
REMARK    2  A    between atoms: C9_9  and  N11_11 
ROOT
HETATM    1  C1  UNL     1     -32.439   9.131   0.622  1.00 20.00    -0.109 C 
HETATM    2  C2  UNL     1     -32.217   8.321   1.481  1.00 20.00    -0.077 C 
HETATM    3  C7  UNL     1     -32.709  10.116  -0.424  1.00 20.00     0.112 C 
ENDROOT
BRANCH   2   4
HETATM    4  C9  UNL     1     -31.940   7.335   2.530  1.00 20.00     0.365 C 
BRANCH   4   5
HETATM    5  N11 UNL     1     -33.123   6.524   2.809  1.00 20.00     0.103 N 
HETATM    6  C4  UNL     1     -34.055   7.246   3.684  1.00 20.00     0.303 C 
HETATM    7  C3  UNL     1     -35.290   6.392   3.979  1.00 20.00     0.300 C 
HETATM    8  N10 UNL     1     -34.929   5.105   4.576  1.00 20.00     0.091 N 
HETATM    9  C6  UNL     1     -33.990   4.384   3.705  1.00 20.00     0.244 C 
HETATM   10  H27 UNL     1     -34.484   5.274   5.478  1.00 20.00     0.316 HD
HETATM   11  C5  UNL     1     -32.744   5.238   3.411  1.00 20.00     0.308 C 
HETATM   12  C8  UNL     1     -33.596   3.070   4.378  1.00 20.00     0.044 C 
ENDBRANCH   4   5
ENDBRANCH   2   4
TORSDOF 2
