REMARK  2 active torsions:
REMARK  status: ('A' for Active; 'I' for Inactive)
REMARK    1  A    between atoms: C3_3  and  C5_5 
REMARK    2  A    between atoms: C5_5  and  C7_7 
ROOT
HETATM    1  C1  UNL     1     -33.000   5.703   2.790  1.00 20.00     0.029 A 
HETATM    2  C2  UNL     1     -34.148   7.593   3.505  1.00 20.00     0.065 A 
HETATM    3  C3  UNL     1     -33.173   7.111   2.659  1.00 20.00     0.018 A 
HETATM    4  C4  UNL     1     -33.848   5.162   3.731  1.00 20.00    -0.021 A 
HETATM    5  C9  UNL     1     -33.975   3.750   4.153  1.00 20.00     0.056 C 
HETATM    6  S12 UNL     1     -34.848   6.350   4.452  1.00 20.00    -0.106 SA
ENDROOT
BRANCH   3   7
HETATM    7  C5  UNL     1     -32.424   7.978   1.745  1.00 20.00     0.164 C 
HETATM    8  O11 UNL     1     -31.206   8.118   1.761  1.00 20.00    -0.292 OA
BRANCH   7   9
HETATM    9  C7  UNL     1     -33.197   8.720   0.743  1.00 20.00     0.065 A 
HETATM   10  C6  UNL     1     -32.469   9.514  -0.313  1.00 20.00     0.018 A 
HETATM   11  C8  UNL     1     -33.242  10.230   0.758  1.00 20.00    -0.006 A 
HETATM   12  C10 UNL     1     -32.522  11.035   1.785  1.00 20.00     0.011 C 
ENDBRANCH   7   9
ENDBRANCH   3   7
TORSDOF 2
