REMARK  2 active torsions:
REMARK  status: ('A' for Active; 'I' for Inactive)
REMARK    1  A    between atoms: C1_1  and  C3_3 
REMARK    2  A    between atoms: C1_1  and  C7_7 
ROOT
HETATM    1  C2  UNL     1     -32.088   5.646   1.230  1.00 20.00     0.017 A 
HETATM    2  C3  UNL     1     -33.446   6.120   1.684  1.00 20.00     0.059 A 
HETATM    3  C4  UNL     1     -32.395   7.116   1.256  1.00 20.00    -0.007 A 
HETATM    4  C5  UNL     1     -31.701   8.005   2.231  1.00 20.00     0.011 C 
ENDROOT
BRANCH   2   5
HETATM    5  C1  UNL     1     -33.822   5.978   3.095  1.00 20.00     0.131 C 
HETATM    6  O8  UNL     1     -33.753   4.890   3.664  1.00 20.00    -0.298 OA
BRANCH   5   7
HETATM    7  C7  UNL     1     -34.294   7.242   3.790  1.00 20.00     0.074 C 
HETATM    8  C6  UNL     1     -33.445   7.596   4.998  1.00 20.00     0.013 C 
ENDBRANCH   5   7
ENDBRANCH   2   5
TORSDOF 2
