REMARK  3 active torsions:
REMARK  status: ('A' for Active; 'I' for Inactive)
REMARK    1  A    between atoms: C1_1  and  C3_3 
REMARK    2  A    between atoms: C1_1  and  C8_8 
REMARK    3  A    between atoms: C8_8  and  C9_9 
ROOT
HETATM    1  C1  UNL     1     -32.609   7.985   2.624  1.00 20.00     0.131 C 
HETATM    2  O10 UNL     1     -32.557   9.055   3.229  1.00 20.00    -0.298 OA
ENDROOT
BRANCH   1   3
HETATM    3  C3  UNL     1     -31.747   7.737   1.413  1.00 20.00     0.059 A 
HETATM    4  C2  UNL     1     -32.418   7.339   0.146  1.00 20.00     0.017 A 
HETATM    5  C4  UNL     1     -31.785   8.695   0.273  1.00 20.00    -0.007 A 
HETATM    6  C5  UNL     1     -32.635   9.920   0.257  1.00 20.00     0.011 C 
ENDBRANCH   1   3
BRANCH   1   7
HETATM    7  C8  UNL     1     -33.558   6.861   3.011  1.00 20.00     0.082 C 
BRANCH   7   8
HETATM    8  C9  UNL     1     -34.831   7.342   3.724  1.00 20.00    -0.016 C 
HETATM    9  C6  UNL     1     -34.499   8.085   5.021  1.00 20.00     0.010 C 
HETATM   10  C7  UNL     1     -35.741   6.151   4.030  1.00 20.00     0.010 C 
ENDBRANCH   7   8
ENDBRANCH   1   7
TORSDOF 3
