REMARK  2 active torsions:
REMARK  status: ('A' for Active; 'I' for Inactive)
REMARK    1  A    between atoms: C2_2  and  C8_8 
REMARK    2  A    between atoms: C3_3  and  C5_5 
ROOT
HETATM    1  C1  UNL     1     -35.206   5.744   4.042  1.00 20.00     0.080 A 
HETATM    2  C2  UNL     1     -34.068   5.009   3.786  1.00 20.00     0.055 A 
HETATM    3  C3  UNL     1     -33.348   6.972   3.124  1.00 20.00     0.080 A 
HETATM    4  N9  UNL     1     -33.001   5.711   3.259  1.00 20.00    -0.248 NA
HETATM    5  S10 UNL     1     -34.942   7.383   3.611  1.00 20.00    -0.084 SA
ENDROOT
BRANCH   3   6
HETATM    6  C5  UNL     1     -32.395   8.005   2.569  1.00 20.00     0.049 A 
HETATM    7  C4  UNL     1     -31.258   7.584   1.663  1.00 20.00     0.016 A 
HETATM    8  C6  UNL     1     -32.420   8.342   1.093  1.00 20.00    -0.007 A 
HETATM    9  C7  UNL     1     -32.249   9.752   0.645  1.00 20.00     0.011 C 
ENDBRANCH   3   6
BRANCH   2  10
HETATM   10  C8  UNL     1     -33.904   3.562   4.026  1.00 20.00     0.174 C 
HETATM   11 CL11 UNL     1     -32.903   3.257   5.470  1.00 20.00    -0.124 Cl
ENDBRANCH   2  10
TORSDOF 2
