REMARK  3 active torsions:
REMARK  status: ('A' for Active; 'I' for Inactive)
REMARK    1  A    between atoms: C1_1  and  C9_9 
REMARK    2  A    between atoms: C10_10  and  C11_11 
REMARK    3  A    between atoms: C11_11  and  N12_12 
ROOT
HETATM    1  C5  UNL     1     -34.583   6.515   4.136  1.00 20.00     0.039 C 
HETATM    2  C6  UNL     1     -34.204   5.279   1.961  1.00 20.00     0.039 C 
HETATM    3  C7  UNL     1     -33.337   7.349   3.863  1.00 20.00     0.235 C 
HETATM    4  C8  UNL     1     -32.962   6.126   1.711  1.00 20.00     0.235 C 
HETATM    5  C9  UNL     1     -34.546   5.151   3.446  1.00 20.00     0.050 C 
HETATM    6  N12 UNL     1     -33.129   7.471   2.374  1.00 20.00    -0.071 N 
HETATM    7  H33 UNL     1     -33.975   7.905   1.980  1.00 20.00     0.279 HD
ENDROOT
BRANCH   6   8
HETATM    8  C11 UNL     1     -31.988   8.395   2.048  1.00 20.00     0.239 C 
BRANCH   8   9
HETATM    9  C10 UNL     1     -32.109   8.849   0.601  1.00 20.00     0.011 C 
HETATM   10  C3  UNL     1     -31.029   9.845   0.109  1.00 20.00     0.006 C 
HETATM   11  C2  UNL     1     -32.011  10.987   0.433  1.00 20.00     0.001 C 
HETATM   12  C4  UNL     1     -33.153   9.958   0.321  1.00 20.00     0.006 C 
ENDBRANCH   8   9
ENDBRANCH   6   8
BRANCH   5  13
HETATM   13  C1  UNL     1     -33.584   4.227   4.138  1.00 20.00     0.235 C 
HETATM   14  O13 UNL     1     -33.741   3.012   4.204  1.00 20.00    -0.306 OA
ENDBRANCH   5  13
TORSDOF 3
