REMARK  2 active torsions:
REMARK  status: ('A' for Active; 'I' for Inactive)
REMARK    1  A    between atoms: C2_2  and  C9_9 
REMARK    2  A    between atoms: C9_9  and  N11_11 
ROOT
HETATM    1  C3  UNL     1     -31.761   5.992   1.455  1.00 20.00     0.300 C 
HETATM    2  C4  UNL     1     -32.269   5.340   2.742  1.00 20.00     0.303 C 
HETATM    3  C5  UNL     1     -33.501   7.350   3.262  1.00 20.00     0.308 C 
HETATM    4  C6  UNL     1     -32.988   8.000   1.964  1.00 20.00     0.244 C 
HETATM    5  C7  UNL     1     -32.861   9.513   2.133  1.00 20.00     0.044 C 
HETATM    6  N10 UNL     1     -31.682   7.449   1.579  1.00 20.00     0.091 N 
HETATM    7  N11 UNL     1     -33.577   5.890   3.119  1.00 20.00     0.100 N 
HETATM    8  H29 UNL     1     -30.997   7.681   2.299  1.00 20.00     0.316 HD
ENDROOT
BRANCH   7   9
HETATM    9  C9  UNL     1     -34.064   5.272   4.351  1.00 20.00     0.241 C 
HETATM   10  C8  UNL     1     -35.395   5.883   4.773  1.00 20.00     0.047 C 
BRANCH   9  11
HETATM   11  C2  UNL     1     -34.189   3.796   4.113  1.00 20.00    -0.002 C 
HETATM   12  C1  UNL     1     -33.472   2.872   4.764  1.00 20.00     0.009 C 
ENDBRANCH   9  11
ENDBRANCH   7   9
TORSDOF 2
