REMARK  3 active torsions:
REMARK  status: ('A' for Active; 'I' for Inactive)
REMARK    1  A    between atoms: C1_1  and  C3_3 
REMARK    2  A    between atoms: C1_1  and  C7_7 
REMARK    3  A    between atoms: C7_7  and  C8_8 
ROOT
HETATM    1  C1  UNL     1     -34.311   6.816   3.669  1.00 20.00     0.131 C 
HETATM    2  O9  UNL     1     -34.062   7.824   4.328  1.00 20.00    -0.298 OA
ENDROOT
BRANCH   1   3
HETATM    3  C3  UNL     1     -33.428   6.402   2.520  1.00 20.00     0.059 A 
HETATM    4  C2  UNL     1     -33.831   6.809   1.145  1.00 20.00     0.017 A 
HETATM    5  C4  UNL     1     -32.628   7.431   1.798  1.00 20.00    -0.007 A 
HETATM    6  C5  UNL     1     -32.638   8.878   2.154  1.00 20.00     0.011 C 
ENDBRANCH   1   3
BRANCH   1   7
HETATM    7  C7  UNL     1     -35.505   5.920   3.951  1.00 20.00     0.078 C 
BRANCH   7   8
HETATM    8  C8  UNL     1     -35.189   4.827   4.967  1.00 20.00     0.003 C 
HETATM    9  C6  UNL     1     -34.089   3.904   4.468  1.00 20.00     0.005 C 
ENDBRANCH   7   8
ENDBRANCH   1   7
TORSDOF 3
