REMARK  1 active torsions:
REMARK  status: ('A' for Active; 'I' for Inactive)
REMARK    1  A    between atoms: C3_3  and  C4_4 
ROOT
HETATM    1  C1  UNL     1     -32.280   8.751   0.869  1.00 20.00     0.064 C 
HETATM    2  C4  UNL     1     -31.764   7.644   1.685  1.00 20.00     0.175 C 
HETATM    3  N5  UNL     1     -32.685   9.628   0.225  1.00 20.00    -0.197 NA
ENDROOT
BRANCH   2   4
HETATM    4  C3  UNL     1     -32.766   6.526   1.751  1.00 20.00     0.035 C 
HETATM    5  C2  UNL     1     -33.716   6.352   2.678  1.00 20.00     0.105 C 
HETATM    6 CL6  UNL     1     -34.027   7.412   3.987  1.00 20.00    -0.096 Cl
HETATM    7 CL7  UNL     1     -32.604   5.326   0.500  1.00 20.00    -0.087 Cl
ENDBRANCH   2   4
TORSDOF 1
