REMARK  2 active torsions:
REMARK  status: ('A' for Active; 'I' for Inactive)
REMARK    1  A    between atoms: C2_2  and  C9_9 
REMARK    2  A    between atoms: C9_9  and  N11_11 
ROOT
HETATM    1  C3  UNL     1     -31.909   5.985   1.617  1.00 20.00     0.300 C 
HETATM    2  C4  UNL     1     -31.509   7.414   1.995  1.00 20.00     0.302 C 
HETATM    3  C5  UNL     1     -33.537   7.632   3.288  1.00 20.00     0.307 C 
HETATM    4  C6  UNL     1     -33.938   6.196   2.902  1.00 20.00     0.244 C 
HETATM    5  C8  UNL     1     -34.761   5.551   4.017  1.00 20.00     0.044 C 
HETATM    6  N10 UNL     1     -32.752   5.370   2.644  1.00 20.00     0.091 N 
HETATM    7  N11 UNL     1     -32.650   8.283   2.313  1.00 20.00     0.096 N 
HETATM    8  H29 UNL     1     -33.037   4.441   2.340  1.00 20.00     0.316 HD
ENDROOT
BRANCH   7   9
HETATM    9  C9  UNL     1     -33.368   8.710   1.114  1.00 20.00     0.305 C 
BRANCH   9  10
HETATM   10  C2  UNL     1     -32.636   9.849   0.463  1.00 20.00    -0.065 C 
HETATM   11  C1  UNL     1     -32.185   9.762  -0.798  1.00 20.00     0.015 C 
HETATM   12  C7  UNL     1     -32.398  11.075   1.297  1.00 20.00     0.044 C 
ENDBRANCH   9  10
ENDBRANCH   7   9
TORSDOF 2
