REMARK  3 active torsions:
REMARK  status: ('A' for Active; 'I' for Inactive)
REMARK    1  A    between atoms: C3_3  and  C5_5 
REMARK    2  A    between atoms: C3_3  and  C9_9 
REMARK    3  A    between atoms: C8_8  and  C9_9 
ROOT
HETATM    1  C1  UNL     1     -33.022  10.111  -0.087  1.00 20.00     0.012 C 
HETATM    2  C2  UNL     1     -32.235   9.218   0.075  1.00 20.00    -0.117 C 
HETATM    3  C8  UNL     1     -31.271   8.124   0.270  1.00 20.00     0.100 C 
ENDROOT
BRANCH   3   4
HETATM    4  C9  UNL     1     -31.382   7.509   1.663  1.00 20.00     0.090 C 
BRANCH   4   5
HETATM    5  C3  UNL     1     -32.744   6.900   1.959  1.00 20.00     0.132 C 
HETATM    6  O10 UNL     1     -33.217   5.968   1.310  1.00 20.00    -0.298 OA
BRANCH   5   7
HETATM    7  C5  UNL     1     -33.494   7.491   3.125  1.00 20.00     0.059 A 
HETATM    8  C4  UNL     1     -34.974   7.607   3.019  1.00 20.00     0.017 A 
HETATM    9  C6  UNL     1     -34.359   6.616   3.965  1.00 20.00    -0.007 A 
HETATM   10  C7  UNL     1     -34.527   5.154   3.727  1.00 20.00     0.011 C 
ENDBRANCH   5   7
ENDBRANCH   4   5
ENDBRANCH   3   4
TORSDOF 3
