REMARK  3 active torsions:
REMARK  status: ('A' for Active; 'I' for Inactive)
REMARK    1  A    between atoms: C2_2  and  C8_8 
REMARK    2  A    between atoms: C6_6  and  C8_8 
REMARK    3  A    between atoms: C8_8  and  N9_9 
ROOT
HETATM    1  C8  UNL     1     -33.025   6.795   2.276  1.00 20.00     0.248 C 
ENDROOT
BRANCH   1   2
HETATM    2  C2  UNL     1     -32.043   7.921   2.104  1.00 20.00    -0.002 C 
HETATM    3  C1  UNL     1     -32.292   9.029   1.396  1.00 20.00     0.009 C 
ENDBRANCH   1   2
BRANCH   1   4
HETATM    4  C6  UNL     1     -33.329   6.532   3.750  1.00 20.00     0.048 C 
HETATM    5  C3  UNL     1     -33.999   7.718   4.412  1.00 20.00     0.035 C 
HETATM    6  C4  UNL     1     -35.461   7.520   4.067  1.00 20.00     0.168 C 
HETATM    7  O10 UNL     1     -35.664   6.113   3.884  1.00 20.00    -0.391 OA
HETATM    8  C5  UNL     1     -34.389   5.456   3.923  1.00 20.00     0.174 C 
ENDBRANCH   1   4
BRANCH   1   9
HETATM    9  N9  UNL     1     -32.466   5.623   1.643  1.00 20.00     0.087 N 
HETATM   10  C7  UNL     1     -32.669   5.649   0.197  1.00 20.00     0.307 C 
HETATM   11  H25 UNL     1     -31.461   5.572   1.832  1.00 20.00     0.316 HD
ENDBRANCH   1   9
TORSDOF 3
