REMARK  2 active torsions:
REMARK  status: ('A' for Active; 'I' for Inactive)
REMARK    1  A    between atoms: C2_2  and  C3_3 
REMARK    2  A    between atoms: C3_3  and  C7_7 
ROOT
HETATM    1  C4  UNL     1     -31.748   9.376  -0.234  1.00 20.00     0.002 C 
HETATM    2  C5  UNL     1     -31.497   7.915   0.194  1.00 20.00     0.012 C 
HETATM    3  C6  UNL     1     -32.814   9.440   0.880  1.00 20.00     0.012 C 
HETATM    4  C7  UNL     1     -32.025   8.314   1.596  1.00 20.00     0.059 C 
ENDROOT
BRANCH   4   5
HETATM    5  C3  UNL     1     -32.841   7.300   2.284  1.00 20.00     0.152 C 
HETATM    6  O8  UNL     1     -32.905   6.145   1.867  1.00 20.00    -0.293 OA
BRANCH   5   7
HETATM    7  C2  UNL     1     -33.554   7.737   3.514  1.00 20.00     0.040 C 
HETATM    8  C1  UNL     1     -34.317   6.884   4.202  1.00 20.00     0.015 C 
ENDBRANCH   5   7
ENDBRANCH   4   5
TORSDOF 2
