REMARK  2 active torsions:
REMARK  status: ('A' for Active; 'I' for Inactive)
REMARK    1  A    between atoms: C3_3  and  C8_8 
REMARK    2  A    between atoms: C9_9  and  C12_12 
ROOT
HETATM    1  C1  UNL     1     -33.505   2.846   4.641  1.00 20.00     0.021 C 
HETATM    2  C2  UNL     1     -33.940   3.947   4.442  1.00 20.00    -0.039 C 
HETATM    3  C3  UNL     1     -34.465   5.270   4.202  1.00 20.00     0.205 C 
HETATM    4  O13 UNL     1     -35.611   5.540   4.536  1.00 20.00    -0.283 OA
ENDROOT
BRANCH   3   5
HETATM    5  C8  UNL     1     -33.525   6.256   3.535  1.00 20.00     0.069 C 
HETATM    6  C4  UNL     1     -33.129   5.675   2.183  1.00 20.00     0.013 C 
HETATM    7  C6  UNL     1     -32.313   6.676   1.368  1.00 20.00     0.006 C 
HETATM    8  C9  UNL     1     -33.053   8.012   1.208  1.00 20.00    -0.011 C 
HETATM    9  C7  UNL     1     -33.455   8.583   2.575  1.00 20.00     0.006 C 
HETATM   10  C5  UNL     1     -34.269   7.578   3.388  1.00 20.00     0.013 C 
BRANCH   8  11
HETATM   11  C12 UNL     1     -32.196   9.014   0.436  1.00 20.00    -0.019 C 
HETATM   12  C10 UNL     1     -32.948  10.329   0.247  1.00 20.00     0.010 C 
HETATM   13  C11 UNL     1     -30.870   9.251   1.155  1.00 20.00     0.010 C 
ENDBRANCH   8  11
ENDBRANCH   3   5
TORSDOF 2
