REMARK  1 active torsions:
REMARK  status: ('A' for Active; 'I' for Inactive)
REMARK    1  A    between atoms: C3_3  and  C5_5 
ROOT
HETATM    1  C1  UNL     1     -34.663   6.315   4.587  1.00 20.00     0.021 C 
HETATM    2  C2  UNL     1     -33.965   6.507   3.630  1.00 20.00    -0.039 C 
HETATM    3  C3  UNL     1     -33.125   6.737   2.478  1.00 20.00     0.206 C 
HETATM    4  O8  UNL     1     -32.917   5.828   1.686  1.00 20.00    -0.283 OA
ENDROOT
BRANCH   3   5
HETATM    5  C5  UNL     1     -32.567   8.087   2.340  1.00 20.00     0.073 A 
HETATM    6  C4  UNL     1     -31.179   8.257   1.776  1.00 20.00     0.018 A 
HETATM    7  C6  UNL     1     -32.373   8.665   0.960  1.00 20.00    -0.006 A 
HETATM    8  C7  UNL     1     -32.650  10.106   0.706  1.00 20.00     0.011 C 
ENDBRANCH   3   5
TORSDOF 1
