REMARK  4 active torsions:
REMARK  status: ('A' for Active; 'I' for Inactive)
REMARK    1  A    between atoms: C1_1  and  C5_5 
REMARK    2  A    between atoms: C1_1  and  C9_9 
REMARK    3  A    between atoms: C6_6  and  C10_10 
REMARK    4  A    between atoms: C9_9  and  C10_10 
ROOT
HETATM    1  C1  UNL     1     -33.162   6.864   2.560  1.00 20.00     0.131 C 
HETATM    2  O11 UNL     1     -32.742   6.081   1.710  1.00 20.00    -0.298 OA
ENDROOT
BRANCH   1   3
HETATM    3  C5  UNL     1     -34.496   6.644   3.226  1.00 20.00     0.059 A 
HETATM    4  C4  UNL     1     -34.540   6.619   4.714  1.00 20.00     0.017 A 
HETATM    5  C7  UNL     1     -34.766   5.358   3.929  1.00 20.00    -0.007 A 
HETATM    6  C8  UNL     1     -33.782   4.242   4.010  1.00 20.00     0.011 C 
ENDBRANCH   1   3
BRANCH   1   7
HETATM    7  C9  UNL     1     -32.389   8.094   3.003  1.00 20.00     0.079 C 
BRANCH   7   8
HETATM    8  C10 UNL     1     -31.533   8.681   1.884  1.00 20.00     0.012 C 
BRANCH   8   9
HETATM    9  C6  UNL     1     -32.379   9.069   0.682  1.00 20.00    -0.014 A 
HETATM   10  C2  UNL     1     -32.969  10.449   0.586  1.00 20.00     0.005 A 
HETATM   11  C3  UNL     1     -31.849  10.045  -0.332  1.00 20.00     0.005 A 
ENDBRANCH   8   9
ENDBRANCH   7   8
ENDBRANCH   1   7
TORSDOF 4
