REMARK  1 active torsions:
REMARK  status: ('A' for Active; 'I' for Inactive)
REMARK    1  A    between atoms: C3_3  and  C5_5 
ROOT
HETATM    1  C1  UNL     1     -32.249   9.150   0.283  1.00 20.00     0.021 C 
HETATM    2  C2  UNL     1     -32.435   8.302   1.112  1.00 20.00    -0.039 C 
HETATM    3  C3  UNL     1     -32.660   7.281   2.108  1.00 20.00     0.206 C 
HETATM    4  O8  UNL     1     -32.949   6.144   1.759  1.00 20.00    -0.283 OA
ENDROOT
BRANCH   3   5
HETATM    5  C5  UNL     1     -32.519   7.696   3.508  1.00 20.00     0.073 A 
HETATM    6  C4  UNL     1     -33.305   8.882   4.010  1.00 20.00     0.018 A 
HETATM    7  C6  UNL     1     -33.647   7.501   4.493  1.00 20.00    -0.006 A 
HETATM    8  C7  UNL     1     -34.942   6.874   4.102  1.00 20.00     0.011 C 
ENDBRANCH   3   5
TORSDOF 1
