REMARK  3 active torsions:
REMARK  status: ('A' for Active; 'I' for Inactive)
REMARK    1  A    between atoms: C3_3  and  C7_7 
REMARK    2  A    between atoms: C6_6  and  O9_9 
REMARK    3  A    between atoms: C7_7  and  O9_9 
ROOT
HETATM    1  C1  UNL     1     -33.847   3.592   4.129  1.00 20.00     0.021 C 
HETATM    2  C2  UNL     1     -34.176   4.742   4.028  1.00 20.00    -0.037 C 
HETATM    3  C3  UNL     1     -34.574   6.127   3.906  1.00 20.00     0.230 C 
HETATM    4  O8  UNL     1     -35.766   6.404   3.875  1.00 20.00    -0.281 OA
ENDROOT
BRANCH   3   5
HETATM    5  C7  UNL     1     -33.456   7.146   3.789  1.00 20.00     0.200 C 
HETATM    6  C5  UNL     1     -33.527   8.197   4.884  1.00 20.00     0.049 C 
BRANCH   5   7
HETATM    7  O9  UNL     1     -33.554   7.780   2.522  1.00 20.00    -0.378 OA
BRANCH   7   8
HETATM    8  C6  UNL     1     -32.326   8.391   2.147  1.00 20.00     0.164 C 
HETATM    9  C4  UNL     1     -32.496   9.048   0.794  1.00 20.00     0.033 C 
ENDBRANCH   7   8
ENDBRANCH   5   7
ENDBRANCH   3   5
TORSDOF 3
