REMARK  2 active torsions:
REMARK  status: ('A' for Active; 'I' for Inactive)
REMARK    1  A    between atoms: C3_3  and  C7_7 
REMARK    2  A    between atoms: C8_8  and  C10_10 
ROOT
HETATM    1  C1  UNL     1     -33.266   3.481   4.597  1.00 20.00     0.021 C 
HETATM    2  C2  UNL     1     -33.798   4.508   4.274  1.00 20.00    -0.039 C 
HETATM    3  C3  UNL     1     -34.438   5.742   3.886  1.00 20.00     0.205 C 
HETATM    4  O11 UNL     1     -35.446   6.115   4.471  1.00 20.00    -0.283 OA
ENDROOT
BRANCH   3   5
HETATM    5  C7  UNL     1     -33.788   6.508   2.746  1.00 20.00     0.069 C 
HETATM    6  C4  UNL     1     -32.510   5.854   2.235  1.00 20.00     0.013 C 
HETATM    7  C5  UNL     1     -31.817   6.965   1.450  1.00 20.00     0.005 C 
HETATM    8  C8  UNL     1     -32.276   8.275   2.092  1.00 20.00    -0.014 C 
HETATM    9  C6  UNL     1     -33.308   7.901   3.153  1.00 20.00     0.017 C 
BRANCH   8  10
HETATM   10  C10 UNL     1     -32.950   9.138   1.041  1.00 20.00     0.000 C 
HETATM   11  C9  UNL     1     -32.012   9.510  -0.065  1.00 20.00     0.005 C 
ENDBRANCH   8  10
ENDBRANCH   3   5
TORSDOF 2
