REMARK  5 active torsions:
REMARK  status: ('A' for Active; 'I' for Inactive)
REMARK    1  A    between atoms: C3_3  and  C5_5 
REMARK    2  A    between atoms: C5_5  and  C6_6 
REMARK    3  A    between atoms: C6_6  and  N9_9 
REMARK    4  A    between atoms: C7_7  and  C8_8 
REMARK    5  A    between atoms: C7_7  and  N9_9 
ROOT
HETATM    1  C6  UNL     1     -32.913   7.179   2.396  1.00 20.00     0.272 C 
ENDROOT
BRANCH   1   2
HETATM    2  C5  UNL     1     -33.218   7.801   1.039  1.00 20.00     0.034 C 
BRANCH   2   3
HETATM    3  C3  UNL     1     -32.198   8.853   0.631  1.00 20.00    -0.013 A 
HETATM    4  C1  UNL     1     -32.539   9.872  -0.420  1.00 20.00     0.005 A 
HETATM    5  C2  UNL     1     -32.399  10.292   1.016  1.00 20.00     0.005 A 
ENDBRANCH   2   3
ENDBRANCH   1   2
BRANCH   1   6
HETATM    6  N9  UNL     1     -33.869   6.172   2.765  1.00 20.00     0.085 N 
HETATM    7  C4  UNL     1     -35.109   6.773   3.282  1.00 20.00     0.309 C 
BRANCH   6   8
HETATM    8  C7  UNL     1     -33.317   5.248   3.769  1.00 20.00     0.286 C 
BRANCH   8   9
HETATM    9  C8  UNL     1     -34.066   3.927   3.821  1.00 20.00     0.144 C 
HETATM   10 CL10 UNL     1     -33.374   2.838   5.049  1.00 20.00    -0.129 Cl
ENDBRANCH   8   9
ENDBRANCH   6   8
ENDBRANCH   1   6
TORSDOF 5
