REMARK  2 active torsions:
REMARK  status: ('A' for Active; 'I' for Inactive)
REMARK    1  A    between atoms: C5_5  and  C8_8 
REMARK    2  A    between atoms: C8_8  and  N9_9 
ROOT
HETATM    1  C1  UNL     1     -31.579   4.906   1.375  1.00 20.00     0.014 C 
HETATM    2  C2  UNL     1     -32.023   6.020   1.311  1.00 20.00    -0.081 C 
HETATM    3  C8  UNL     1     -32.563   7.399   1.260  1.00 20.00     0.301 C 
ENDROOT
BRANCH   3   4
HETATM    4  C5  UNL     1     -32.019   8.177   0.112  1.00 20.00     0.035 A 
HETATM    5  C3  UNL     1     -30.949   9.214   0.336  1.00 20.00     0.012 A 
HETATM    6  C4  UNL     1     -32.328   9.642  -0.095  1.00 20.00    -0.011 A 
HETATM    7  C6  UNL     1     -33.200  10.414   0.834  1.00 20.00     0.010 C 
ENDBRANCH   3   4
BRANCH   3   8
HETATM    8  N9  UNL     1     -32.291   8.052   2.530  1.00 20.00     0.095 N 
HETATM    9  C7  UNL     1     -33.265   7.658   3.541  1.00 20.00     0.308 C 
HETATM   10  H22 UNL     1     -31.357   7.795   2.850  1.00 20.00     0.317 HD
ENDBRANCH   3   8
TORSDOF 2
