REMARK  1 active torsions:
REMARK  status: ('A' for Active; 'I' for Inactive)
REMARK    1  A    between atoms: C3_3  and  C7_7 
ROOT
HETATM    1  C1  UNL     1     -32.575  10.247  -0.214  1.00 20.00     0.021 C 
HETATM    2  C2  UNL     1     -32.517   9.398   0.633  1.00 20.00    -0.039 C 
HETATM    3  C3  UNL     1     -32.446   8.377   1.651  1.00 20.00     0.208 C 
HETATM    4  O10 UNL     1     -31.419   7.725   1.788  1.00 20.00    -0.283 OA
ENDROOT
BRANCH   3   5
HETATM    5  C7  UNL     1     -33.673   8.188   2.488  1.00 20.00     0.100 C 
HETATM    6  C6  UNL     1     -33.316   7.614   3.863  1.00 20.00     0.047 C 
HETATM    7  C8  UNL     1     -34.100   6.302   3.871  1.00 20.00     0.122 C 
HETATM    8  C4  UNL     1     -35.602   6.565   3.977  1.00 20.00     0.034 C 
HETATM    9  O11 UNL     1     -33.981   5.897   2.490  1.00 20.00    -0.380 OA
HETATM   10  C5  UNL     1     -35.934   7.099   2.581  1.00 20.00     0.035 C 
HETATM   11  C9  UNL     1     -34.565   7.087   1.903  1.00 20.00     0.134 C 
ENDBRANCH   3   5
TORSDOF 1
