REMARK  2 active torsions:
REMARK  status: ('A' for Active; 'I' for Inactive)
REMARK    1  A    between atoms: C3_3  and  C7_7 
REMARK    2  A    between atoms: C8_8  and  C10_10 
ROOT
HETATM    1  C1  UNL     1     -32.228   9.407   0.919  1.00 20.00     0.021 C 
HETATM    2  C2  UNL     1     -32.482   8.346   1.419  1.00 20.00    -0.039 C 
HETATM    3  C3  UNL     1     -32.788   7.069   2.020  1.00 20.00     0.205 C 
HETATM    4  O11 UNL     1     -32.551   6.036   1.408  1.00 20.00    -0.283 OA
ENDROOT
BRANCH   3   5
HETATM    5  C7  UNL     1     -33.400   7.109   3.408  1.00 20.00     0.069 C 
HETATM    6  C4  UNL     1     -34.924   7.096   3.288  1.00 20.00     0.013 C 
HETATM    7  C5  UNL     1     -35.392   5.872   4.069  1.00 20.00     0.005 C 
HETATM    8  C8  UNL     1     -34.216   4.906   3.976  1.00 20.00    -0.014 C 
HETATM    9  C6  UNL     1     -33.012   5.832   4.151  1.00 20.00     0.017 C 
BRANCH   8  10
HETATM   10  C10 UNL     1     -34.271   3.795   5.009  1.00 20.00     0.000 C 
HETATM   11  C9  UNL     1     -33.081   2.891   4.924  1.00 20.00     0.005 C 
ENDBRANCH   8  10
ENDBRANCH   3   5
TORSDOF 2
