REMARK  3 active torsions:
REMARK  status: ('A' for Active; 'I' for Inactive)
REMARK    1  A    between atoms: C6_6  and  C10_10 
REMARK    2  A    between atoms: C7_7  and  C11_11 
REMARK    3  A    between atoms: C11_11  and  N12_12 
ROOT
HETATM    1  C1  UNL     1     -34.040   3.877   4.387  1.00 20.00     0.014 C 
HETATM    2  C2  UNL     1     -34.017   4.944   3.838  1.00 20.00    -0.081 C 
HETATM    3  C11 UNL     1     -33.994   6.251   3.165  1.00 20.00     0.301 C 
ENDROOT
BRANCH   3   4
HETATM    4  C7  UNL     1     -32.590   6.593   2.670  1.00 20.00     0.031 C 
HETATM    5  C4  UNL     1     -32.276   5.932   1.329  1.00 20.00     0.008 C 
HETATM    6  C3  UNL     1     -32.783   6.897   0.255  1.00 20.00     0.005 C 
HETATM    7  C6  UNL     1     -33.033   8.238   0.958  1.00 20.00    -0.014 C 
HETATM    8  C5  UNL     1     -32.424   8.079   2.353  1.00 20.00     0.012 C 
BRANCH   7   9
HETATM    9  C10 UNL     1     -32.463   9.427   0.199  1.00 20.00     0.000 C 
HETATM   10  C8  UNL     1     -32.711  10.717   0.914  1.00 20.00     0.005 C 
ENDBRANCH   7   9
ENDBRANCH   3   4
BRANCH   3  11
HETATM   11  N12 UNL     1     -34.480   7.272   4.061  1.00 20.00     0.095 N 
HETATM   12  C9  UNL     1     -33.652   7.369   5.261  1.00 20.00     0.308 C 
HETATM   13  H31 UNL     1     -35.441   7.059   4.344  1.00 20.00     0.317 HD
ENDBRANCH   3  11
TORSDOF 3
