REMARK  3 active torsions:
REMARK  status: ('A' for Active; 'I' for Inactive)
REMARK    1  A    between atoms: C7_7  and  C9_9 
REMARK    2  A    between atoms: C9_9  and  C10_10 
REMARK    3  A    between atoms: C10_10  and  N11_11 
ROOT
HETATM    1  C1  UNL     1     -35.700   5.953   3.952  1.00 20.00     0.029 C 
HETATM    2  C4  UNL     1     -34.980   4.856   4.730  1.00 20.00     0.023 C 
HETATM    3  C5  UNL     1     -34.754   7.076   3.552  1.00 20.00     0.235 C 
HETATM    4  C6  UNL     1     -32.827   5.465   3.557  1.00 20.00     0.254 C 
HETATM    5  C8  UNL     1     -33.774   4.337   3.951  1.00 20.00     0.108 C 
HETATM    6  N11 UNL     1     -33.595   6.504   2.771  1.00 20.00    -0.070 N 
HETATM    7 CL12 UNL     1     -32.892   3.133   4.933  1.00 20.00    -0.123 Cl
HETATM    8  H31 UNL     1     -33.987   6.032   1.944  1.00 20.00     0.279 HD
ENDROOT
BRANCH   6   9
HETATM    9  C10 UNL     1     -32.689   7.586   2.251  1.00 20.00     0.235 C 
BRANCH   9  10
HETATM   10  C9  UNL     1     -33.317   8.209   1.014  1.00 20.00     0.032 C 
BRANCH  10  11
HETATM   11  C7  UNL     1     -32.416   9.281   0.421  1.00 20.00    -0.013 A 
HETATM   12  C2  UNL     1     -31.386   8.918  -0.612  1.00 20.00     0.005 A 
HETATM   13  C3  UNL     1     -32.597   9.716  -1.007  1.00 20.00     0.005 A 
ENDBRANCH  10  11
ENDBRANCH   9  10
ENDBRANCH   6   9
TORSDOF 3
