REMARK  2 active torsions:
REMARK  status: ('A' for Active; 'I' for Inactive)
REMARK    1  A    between atoms: C2_2  and  C3_3 
REMARK    2  A    between atoms: C3_3  and  C8_8 
ROOT
HETATM    1  C4  UNL     1     -32.022   8.258   2.595  1.00 20.00     0.027 C 
HETATM    2  C5  UNL     1     -33.232   7.578   3.229  1.00 20.00     0.017 C 
HETATM    3  C6  UNL     1     -31.635   7.566   1.295  1.00 20.00     0.167 C 
HETATM    4  C7  UNL     1     -32.561   5.499   1.989  1.00 20.00     0.180 C 
HETATM    5  C8  UNL     1     -33.007   6.071   3.332  1.00 20.00     0.083 C 
HETATM    6  O10 UNL     1     -31.397   6.176   1.513  1.00 20.00    -0.390 OA
ENDROOT
BRANCH   5   7
HETATM    7  C3  UNL     1     -34.264   5.401   3.790  1.00 20.00     0.154 C 
HETATM    8  O9  UNL     1     -35.294   6.044   3.979  1.00 20.00    -0.293 OA
BRANCH   7   9
HETATM    9  C2  UNL     1     -34.207   3.926   3.974  1.00 20.00     0.040 C 
HETATM   10  C1  UNL     1     -33.353   3.379   4.843  1.00 20.00     0.015 C 
ENDBRANCH   7   9
ENDBRANCH   5   7
TORSDOF 2
