REMARK  4 active torsions:
REMARK  status: ('A' for Active; 'I' for Inactive)
REMARK    1  A    between atoms: C1_1  and  C8_8 
REMARK    2  A    between atoms: C1_1  and  O11_11 
REMARK    3  A    between atoms: C4_4  and  C8_8 
REMARK    4  A    between atoms: C8_8  and  N9_9 
ROOT
HETATM    1  C8  UNL     1     -32.886   6.865   2.473  1.00 20.00     0.324 C 
ENDROOT
BRANCH   1   2
HETATM    2  C1  UNL     1     -32.149   8.062   1.892  1.00 20.00     0.292 C 
HETATM    3  O10 UNL     1     -31.086   8.470   2.347  1.00 20.00    -0.263 OA
BRANCH   2   4
HETATM    4  O11 UNL     1     -32.803   8.601   0.824  1.00 20.00    -0.325 OA
HETATM    5  C7  UNL     1     -32.169   9.729   0.212  1.00 20.00     0.213 C 
ENDBRANCH   2   4
ENDBRANCH   1   2
BRANCH   1   6
HETATM    6  C4  UNL     1     -34.275   7.272   2.939  1.00 20.00     0.029 A 
HETATM    7  C2  UNL     1     -35.158   6.282   3.647  1.00 20.00     0.008 A 
HETATM    8  C3  UNL     1     -34.563   7.436   4.406  1.00 20.00     0.008 A 
ENDBRANCH   1   6
BRANCH   1   9
HETATM    9  N9  UNL     1     -32.973   5.779   1.530  1.00 20.00     0.094 N 
HETATM   10  C5  UNL     1     -31.637   5.317   1.125  1.00 20.00     0.310 C 
HETATM   11  C6  UNL     1     -33.742   6.167   0.339  1.00 20.00     0.310 C 
ENDBRANCH   1   9
TORSDOF 4
