REMARK  1 active torsions:
REMARK  status: ('A' for Active; 'I' for Inactive)
REMARK    1  A    between atoms: C3_3  and  C8_8 
ROOT
HETATM    1  C1  UNL     1     -32.612   7.012   1.491  1.00 20.00     0.016 A 
HETATM    2  C2  UNL     1     -32.359   8.127   0.641  1.00 20.00     0.015 A 
HETATM    3  C3  UNL     1     -33.027   7.402   2.746  1.00 20.00    -0.013 A 
HETATM    4  C4  UNL     1     -32.590   9.327   1.278  1.00 20.00    -0.021 A 
HETATM    5  C10 UNL     1     -32.444  10.697   0.741  1.00 20.00     0.056 C 
HETATM    6  S11 UNL     1     -33.109   9.106   2.894  1.00 20.00    -0.099 SA
ENDROOT
BRANCH   3   7
HETATM    7  C8  UNL     1     -33.393   6.533   3.928  1.00 20.00     0.027 C 
HETATM    8  C5  UNL     1     -34.897   6.203   3.974  1.00 20.00     0.011 C 
HETATM    9  C6  UNL     1     -34.966   4.775   4.497  1.00 20.00     0.016 C 
HETATM   10  C9  UNL     1     -33.762   4.127   3.841  1.00 20.00     0.058 C 
HETATM   11  C7  UNL     1     -32.664   5.172   3.973  1.00 20.00     0.025 C 
HETATM   12 BR12 UNL     1     -33.286   2.469   4.712  1.00 20.00    -0.091 Br
ENDBRANCH   3   7
TORSDOF 1
