REMARK  1 active torsions:
REMARK  status: ('A' for Active; 'I' for Inactive)
REMARK    1  A    between atoms: C3_3  and  C9_9 
ROOT
HETATM    1  C1  UNL     1     -31.459   7.501   1.983  1.00 20.00     0.016 A 
HETATM    2  C2  UNL     1     -31.056   8.741   1.408  1.00 20.00     0.015 A 
HETATM    3  C3  UNL     1     -32.830   7.376   2.034  1.00 20.00    -0.013 A 
HETATM    4  C4  UNL     1     -32.134   9.516   1.042  1.00 20.00    -0.021 A 
HETATM    5  C10 UNL     1     -32.134  10.857   0.417  1.00 20.00     0.056 C 
HETATM    6  S12 UNL     1     -33.625   8.750   1.391  1.00 20.00    -0.099 SA
ENDROOT
BRANCH   3   7
HETATM    7  C9  UNL     1     -33.649   6.225   2.566  1.00 20.00     0.033 C 
HETATM    8  C7  UNL     1     -32.814   5.061   3.116  1.00 20.00     0.088 C 
HETATM    9  C5  UNL     1     -33.797   4.394   4.045  1.00 20.00     0.127 C 
HETATM   10  C6  UNL     1     -35.014   5.246   4.300  1.00 20.00     0.079 C 
HETATM   11  O11 UNL     1     -33.627   3.286   4.536  1.00 20.00    -0.298 OA
HETATM   12  C8  UNL     1     -34.582   6.592   3.727  1.00 20.00     0.018 C 
ENDBRANCH   3   7
TORSDOF 1
