REMARK  4 active torsions:
REMARK  status: ('A' for Active; 'I' for Inactive)
REMARK    1  A    between atoms: C1_1  and  C5_5 
REMARK       I    between atoms: C1_1  and  N8_8 
REMARK    2  A    between atoms: C5_5  and  S10_10 
REMARK    3  A    between atoms: C6_6  and  N8_8 
REMARK    4  A    between atoms: C7_7  and  N8_8 
ROOT
HETATM    1  C1  UNL     1     -33.358   7.227   3.310  1.00 20.00     0.229 C 
HETATM    2  N8  UNL     1     -32.782   7.118   2.037  1.00 20.00    -0.348 N 
HETATM    3  O9  UNL     1     -32.869   7.917   4.209  1.00 20.00    -0.273 OA
ENDROOT
BRANCH   2   4
HETATM    4  C6  UNL     1     -32.917   5.916   1.216  1.00 20.00     0.121 C 
HETATM    5  C2  UNL     1     -31.807   4.956   1.482  1.00 20.00     0.026 C 
ENDBRANCH   2   4
BRANCH   2   6
HETATM    6  C7  UNL     1     -32.006   8.195   1.435  1.00 20.00     0.079 C 
HETATM    7  C3  UNL     1     -30.796   8.487   2.311  1.00 20.00     0.032 C 
HETATM    8  C4  UNL     1     -32.897   9.418   1.279  1.00 20.00     0.032 C 
ENDBRANCH   2   6
BRANCH   1   9
HETATM    9  C5  UNL     1     -34.638   6.437   3.520  1.00 20.00     0.173 C 
BRANCH   9  10
HETATM   10  S10 UNL     1     -34.311   4.767   4.141  1.00 20.00    -0.173 SA
HETATM   11  H25 UNL     1     -35.593   4.381   4.205  1.00 20.00     0.102 HD
ENDBRANCH   9  10
ENDBRANCH   1   9
TORSDOF 4
