REMARK  1 active torsions:
REMARK  status: ('A' for Active; 'I' for Inactive)
REMARK    1  A    between atoms: C3_3  and  C8_8 
ROOT
HETATM    1  C1  UNL     1     -33.390   7.813   3.342  1.00 20.00     0.016 A 
HETATM    2  C2  UNL     1     -33.924   6.608   3.884  1.00 20.00     0.015 A 
HETATM    3  C3  UNL     1     -32.743   7.600   2.145  1.00 20.00    -0.012 A 
HETATM    4  C4  UNL     1     -33.665   5.520   3.080  1.00 20.00    -0.021 A 
HETATM    5  C10 UNL     1     -34.049   4.108   3.291  1.00 20.00     0.056 C 
HETATM    6  S11 UNL     1     -32.780   5.953   1.679  1.00 20.00    -0.099 SA
ENDROOT
BRANCH   3   7
HETATM    7  C8  UNL     1     -32.047   8.610   1.258  1.00 20.00     0.040 C 
HETATM    8  C6  UNL     1     -31.395   7.969   0.020  1.00 20.00     0.011 C 
HETATM    9  C5  UNL     1     -31.387   9.090  -1.007  1.00 20.00     0.002 C 
HETATM   10  C7  UNL     1     -32.750   9.740  -0.813  1.00 20.00     0.016 C 
HETATM   11  C9  UNL     1     -32.987   9.697   0.696  1.00 20.00     0.067 C 
HETATM   12 BR12 UNL     1     -32.538  11.436   1.484  1.00 20.00    -0.090 Br
ENDBRANCH   3   7
TORSDOF 1
