REMARK  1 active torsions:
REMARK  status: ('A' for Active; 'I' for Inactive)
REMARK    1  A    between atoms: C3_3  and  C8_8 
ROOT
HETATM    1  C1  UNL     1     -31.512   7.492   1.610  1.00 20.00     0.016 A 
HETATM    2  C2  UNL     1     -31.278   8.696   0.884  1.00 20.00     0.015 A 
HETATM    3  C3  UNL     1     -32.849   7.164   1.651  1.00 20.00    -0.012 A 
HETATM    4  C4  UNL     1     -32.446   9.241   0.398  1.00 20.00    -0.021 A 
HETATM    5  C10 UNL     1     -32.624  10.475  -0.399  1.00 20.00     0.056 C 
HETATM    6  S11 UNL     1     -33.816   8.304   0.816  1.00 20.00    -0.099 SA
ENDROOT
BRANCH   3   7
HETATM    7  C8  UNL     1     -33.507   5.973   2.315  1.00 20.00     0.040 C 
HETATM    8  C6  UNL     1     -32.604   4.964   3.043  1.00 20.00     0.011 C 
HETATM    9  C5  UNL     1     -33.547   4.142   3.923  1.00 20.00     0.002 C 
HETATM   10  C7  UNL     1     -34.864   4.918   3.997  1.00 20.00     0.016 C 
HETATM   11  C9  UNL     1     -34.583   6.278   3.368  1.00 20.00     0.067 C 
HETATM   12 BR12 UNL     1     -33.952   7.513   4.752  1.00 20.00    -0.090 Br
ENDBRANCH   3   7
TORSDOF 1
