REMARK  3 active torsions:
REMARK  status: ('A' for Active; 'I' for Inactive)
REMARK    1  A    between atoms: C4_4  and  C9_9 
REMARK    2  A    between atoms: C7_7  and  C8_8 
REMARK    3  A    between atoms: C7_7  and  N10_10 
ROOT
HETATM    1  C1  UNL     1     -31.382   4.581   1.265  1.00 20.00     0.032 C 
HETATM    2  C2  UNL     1     -32.512   4.183   2.210  1.00 20.00     0.038 C 
HETATM    3  C3  UNL     1     -31.647   6.037   0.920  1.00 20.00     0.273 C 
HETATM    4  C4  UNL     1     -33.369   5.441   2.367  1.00 20.00     0.226 C 
HETATM    5  N10 UNL     1     -32.418   6.521   2.068  1.00 20.00     0.094 N 
ENDROOT
BRANCH   4   6
HETATM    6  C9  UNL     1     -33.977   5.540   3.761  1.00 20.00     0.011 C 
HETATM    7  C5  UNL     1     -35.159   6.508   3.767  1.00 20.00     0.011 C 
HETATM    8  C6  UNL     1     -34.412   4.162   4.259  1.00 20.00     0.011 C 
ENDBRANCH   4   6
BRANCH   5   9
HETATM    9  C7  UNL     1     -33.063   7.795   1.779  1.00 20.00     0.287 C 
BRANCH   9  10
HETATM   10  C8  UNL     1     -32.147   8.761   1.047  1.00 20.00     0.144 C 
HETATM   11 CL11 UNL     1     -32.967  10.307   0.715  1.00 20.00    -0.129 Cl
ENDBRANCH   9  10
ENDBRANCH   5   9
TORSDOF 3
