REMARK  1 active torsions:
REMARK  status: ('A' for Active; 'I' for Inactive)
REMARK    1  A    between atoms: C3_3  and  C6_6 
ROOT
HETATM    1  C1  UNL     1     -32.718   9.834   0.557  1.00 20.00     0.087 C 
HETATM    2  C5  UNL     1     -33.280   8.786   1.336  1.00 20.00     0.095 C 
HETATM    3  C6  UNL     1     -32.597   7.635   1.668  1.00 20.00     0.032 C 
HETATM    4  N8  UNL     1     -32.263  10.691  -0.079  1.00 20.00    -0.192 NA
ENDROOT
BRANCH   3   5
HETATM    5  C3  UNL     1     -33.076   6.547   2.424  1.00 20.00     0.031 A 
HETATM    6  C4  UNL     1     -33.993   6.512   3.455  1.00 20.00     0.048 A 
HETATM    7  C7  UNL     1     -34.714   7.670   4.024  1.00 20.00     0.072 C 
HETATM    8  N9  UNL     1     -34.248   5.266   3.993  1.00 20.00    -0.258 NA
HETATM    9  C2  UNL     1     -33.519   4.372   3.361  1.00 20.00     0.167 A 
HETATM   10  S10 UNL     1     -32.503   4.962   2.109  1.00 20.00    -0.081 SA
ENDBRANCH   3   5
TORSDOF 1
