REMARK  0 active torsions:
REMARK  status: ('A' for Active; 'I' for Inactive)
ROOT
HETATM    1  C1  UNL     1     -32.173   8.688   0.569  1.00 20.00     0.002 C 
HETATM    2  C2  UNL     1     -33.388   8.613   1.524  1.00 20.00     0.015 C 
HETATM    3  C3  UNL     1     -31.402   7.798   1.575  1.00 20.00     0.015 C 
HETATM    4  C4  UNL     1     -35.215   6.369   3.573  1.00 20.00     0.036 C 
HETATM    5  C5  UNL     1     -34.921   7.310   4.736  1.00 20.00     0.168 C 
HETATM    6  C6  UNL     1     -33.840   5.847   3.151  1.00 20.00     0.050 C 
HETATM    7  C7  UNL     1     -33.397   6.028   1.664  1.00 20.00     0.178 C 
HETATM    8  C8  UNL     1     -32.929   7.042   3.556  1.00 20.00     0.139 C 
HETATM    9  C9  UNL     1     -32.756   7.342   2.083  1.00 20.00     0.016 C 
HETATM   10  O10 UNL     1     -32.498   5.019   1.273  1.00 20.00    -0.234 OA
HETATM   11  O11 UNL     1     -33.695   7.955   4.372  1.00 20.00    -0.385 OA
ENDROOT
TORSDOF 0
