REMARK  2 active torsions:
REMARK  status: ('A' for Active; 'I' for Inactive)
REMARK    1  A    between atoms: C1_1  and  C7_7 
REMARK    2  A    between atoms: C3_3  and  C7_7 
ROOT
HETATM    1  C2  UNL     1     -32.310   6.600   1.778  1.00 20.00     0.015 A 
HETATM    2  C3  UNL     1     -33.505   7.254   2.420  1.00 20.00     0.004 A 
HETATM    3  C4  UNL     1     -32.272   8.080   2.091  1.00 20.00    -0.043 A 
HETATM    4  C5  UNL     1     -32.381   9.047   0.940  1.00 20.00     0.015 C 
HETATM    5  C6  UNL     1     -31.359   8.546   3.194  1.00 20.00     0.015 C 
ENDROOT
BRANCH   2   6
HETATM    6  C7  UNL     1     -33.892   6.907   3.816  1.00 20.00     0.118 C 
BRANCH   6   7
HETATM    7  C1  UNL     1     -35.088   5.946   3.973  1.00 20.00     0.172 C 
HETATM    8  O8  UNL     1     -36.195   6.373   3.544  1.00 20.00    -0.648 OA
HETATM    9  O9  UNL     1     -34.813   4.836   4.516  1.00 20.00    -0.648 OA
ENDBRANCH   6   7
ENDBRANCH   2   6
TORSDOF 2
