REMARK  2 active torsions:
REMARK  status: ('A' for Active; 'I' for Inactive)
REMARK    1  A    between atoms: C6_6  and  C7_7 
REMARK    2  A    between atoms: C7_7  and  N8_8 
ROOT
HETATM    1  C1  UNL     1     -32.439   9.231   0.689  1.00 20.00     0.157 C 
HETATM    2  N8  UNL     1     -32.328   8.109   1.025  1.00 20.00    -0.274 NA
HETATM    3  S9  UNL     1     -32.584  10.744   0.213  1.00 20.00    -0.055 SA
ENDROOT
BRANCH   2   4
HETATM    4  C7  UNL     1     -32.529   7.866   2.449  1.00 20.00     0.165 C 
BRANCH   4   5
HETATM    5  C6  UNL     1     -33.698   6.900   2.619  1.00 20.00     0.067 C 
HETATM    6  C4  UNL     1     -34.280   6.988   4.038  1.00 20.00     0.017 C 
HETATM    7  C2  UNL     1     -35.174   5.804   4.387  1.00 20.00     0.002 C 
HETATM    8  C3  UNL     1     -34.400   4.489   4.508  1.00 20.00     0.010 C 
HETATM    9  C5  UNL     1     -33.067   4.445   3.767  1.00 20.00     0.074 C 
HETATM   10  S10 UNL     1     -33.171   5.214   2.129  1.00 20.00    -0.163 SA
ENDBRANCH   4   5
ENDBRANCH   2   4
TORSDOF 2
