REMARK  2 active torsions:
REMARK  status: ('A' for Active; 'I' for Inactive)
REMARK    1  A    between atoms: C6_6  and  C7_7 
REMARK    2  A    between atoms: C7_7  and  N8_8 
ROOT
HETATM    1  C1  UNL     1     -32.513   9.133   0.123  1.00 20.00     0.157 C 
HETATM    2  N8  UNL     1     -32.121   8.077   0.465  1.00 20.00    -0.274 NA
HETATM    3  S9  UNL     1     -33.043  10.555  -0.362  1.00 20.00    -0.055 SA
ENDROOT
BRANCH   2   4
HETATM    4  C7  UNL     1     -31.905   7.932   1.901  1.00 20.00     0.165 C 
BRANCH   4   5
HETATM    5  C6  UNL     1     -33.197   7.433   2.540  1.00 20.00     0.067 C 
HETATM    6  C4  UNL     1     -33.354   5.919   2.356  1.00 20.00     0.017 C 
HETATM    7  C2  UNL     1     -34.426   5.255   3.228  1.00 20.00     0.002 C 
HETATM    8  C3  UNL     1     -35.451   6.238   3.778  1.00 20.00     0.010 C 
HETATM    9  C5  UNL     1     -34.850   7.230   4.770  1.00 20.00     0.074 C 
HETATM   10  S10 UNL     1     -33.218   7.892   4.304  1.00 20.00    -0.163 SA
ENDBRANCH   4   5
ENDBRANCH   2   4
TORSDOF 2
