REMARK  2 active torsions:
REMARK  status: ('A' for Active; 'I' for Inactive)
REMARK    1  A    between atoms: C5_5  and  C6_6 
REMARK    2  A    between atoms: C6_6  and  S8_8 
ROOT
HETATM    1  C1  UNL     1     -33.578   6.033   2.537  1.00 20.00     0.027 C 
HETATM    2  C2  UNL     1     -32.947   6.828   1.398  1.00 20.00     0.009 C 
HETATM    3  C3  UNL     1     -34.125   6.968   3.608  1.00 20.00     0.167 C 
HETATM    4  C4  UNL     1     -32.587   8.683   3.051  1.00 20.00     0.172 C 
HETATM    5  C5  UNL     1     -31.940   7.847   1.944  1.00 20.00     0.019 C 
HETATM    6  O7  UNL     1     -33.102   7.842   4.084  1.00 20.00    -0.391 OA
ENDROOT
BRANCH   5   7
HETATM    7  C6  UNL     1     -31.394   8.733   0.830  1.00 20.00     0.077 C 
BRANCH   7   8
HETATM    8  S8  UNL     1     -32.741   9.651   0.041  1.00 20.00    -0.182 SA
HETATM    9  H20 UNL     1     -31.975  10.302  -0.846  1.00 20.00     0.101 HD
ENDBRANCH   7   8
ENDBRANCH   5   7
TORSDOF 2
