REMARK  2 active torsions:
REMARK  status: ('A' for Active; 'I' for Inactive)
REMARK    1  A    between atoms: C5_5  and  C7_7 
REMARK    2  A    between atoms: C6_6  and  C8_8 
ROOT
HETATM    1  C1  UNL     1     -32.562   5.590   0.793  1.00 20.00     0.001 C 
HETATM    2  C2  UNL     1     -31.926   6.905   0.350  1.00 20.00     0.005 C 
HETATM    3  C3  UNL     1     -33.805   5.825   1.647  1.00 20.00     0.013 C 
HETATM    4  C4  UNL     1     -32.864   8.046   2.401  1.00 20.00     0.019 C 
HETATM    5  C5  UNL     1     -31.610   7.811   1.547  1.00 20.00    -0.000 C 
HETATM    6  C6  UNL     1     -33.501   6.724   2.852  1.00 20.00     0.094 C 
ENDROOT
BRANCH   6   7
HETATM    7  C8  UNL     1     -34.769   6.985   3.663  1.00 20.00     0.391 C 
HETATM    8  F9  UNL     1     -34.482   7.743   4.732  1.00 20.00    -0.171 F 
HETATM    9  F10 UNL     1     -35.674   7.624   2.907  1.00 20.00    -0.171 F 
HETATM   10  F11 UNL     1     -35.294   5.824   4.081  1.00 20.00    -0.171 F 
ENDBRANCH   6   7
BRANCH   5  11
HETATM   11  C7  UNL     1     -31.021   9.140   1.076  1.00 20.00     0.119 C 
HETATM   12 CL12 UNL     1     -32.169   9.973   0.015  1.00 20.00    -0.130 Cl
ENDBRANCH   5  11
TORSDOF 2
