REMARK  2 active torsions:
REMARK  status: ('A' for Active; 'I' for Inactive)
REMARK    1  A    between atoms: C4_4  and  C7_7 
REMARK    2  A    between atoms: C5_5  and  C8_8 
ROOT
HETATM    1  C1  UNL     1     -32.409   5.551   1.646  1.00 20.00     0.005 C 
HETATM    2  C2  UNL     1     -31.646   6.490   0.727  1.00 20.00     0.006 C 
HETATM    3  C3  UNL     1     -32.643   7.812   2.508  1.00 20.00     0.010 C 
HETATM    4  C4  UNL     1     -33.399   6.485   2.341  1.00 20.00    -0.014 C 
HETATM    5  C5  UNL     1     -31.397   7.709   1.614  1.00 20.00    -0.000 C 
ENDROOT
BRANCH   4   6
HETATM    6  C7  UNL     1     -33.926   5.924   3.651  1.00 20.00     0.000 C 
HETATM    7  C6  UNL     1     -34.884   6.861   4.316  1.00 20.00     0.005 C 
ENDBRANCH   4   6
BRANCH   5   8
HETATM    8  C8  UNL     1     -31.120   8.975   0.820  1.00 20.00     0.119 C 
HETATM    9 CL9  UNL     1     -32.496   9.355  -0.235  1.00 20.00    -0.130 Cl
ENDBRANCH   5   8
TORSDOF 2
