REMARK  4 active torsions:
REMARK  status: ('A' for Active; 'I' for Inactive)
REMARK    1  A    between atoms: C3_3  and  C6_6 
REMARK    2  A    between atoms: C4_4  and  C6_6 
REMARK    3  A    between atoms: C4_4  and  O7_7 
REMARK    4  A    between atoms: C5_5  and  C6_6 
ROOT
HETATM    1  C6  UNL     1     -32.243   7.898   1.742  1.00 20.00     0.023 C 
ENDROOT
BRANCH   1   2
HETATM    2  C3  UNL     1     -32.189   8.801   0.489  1.00 20.00     0.003 C 
HETATM    3  C1  UNL     1     -32.775  10.189   0.708  1.00 20.00     0.005 C 
ENDBRANCH   1   2
BRANCH   1   4
HETATM    4  C4  UNL     1     -33.687   7.777   2.258  1.00 20.00     0.172 C 
BRANCH   4   5
HETATM    5  O7  UNL     1     -33.724   6.923   3.395  1.00 20.00    -0.396 OA
HETATM    6  C2  UNL     1     -35.043   6.798   3.909  1.00 20.00     0.201 C 
ENDBRANCH   4   5
ENDBRANCH   1   4
BRANCH   1   7
HETATM    7  C5  UNL     1     -31.608   6.511   1.546  1.00 20.00     0.121 C 
HETATM    8 CL8  UNL     1     -32.404   5.536   0.287  1.00 20.00    -0.130 Cl
ENDBRANCH   1   7
TORSDOF 4
