REMARK  5 active torsions:
REMARK  status: ('A' for Active; 'I' for Inactive)
REMARK    1  A    between atoms: C3_3  and  C7_7 
REMARK    2  A    between atoms: C5_5  and  C6_6 
REMARK    3  A    between atoms: C5_5  and  C7_7 
REMARK    4  A    between atoms: C6_6  and  S9_9 
REMARK    5  A    between atoms: C7_7  and  O8_8 
ROOT
HETATM    1  C7  UNL     1     -33.382   6.817   2.280  1.00 20.00     0.122 C 
ENDROOT
BRANCH   1   2
HETATM    2  C3  UNL     1     -33.879   6.603   3.679  1.00 20.00     0.014 A 
HETATM    3  C1  UNL     1     -34.760   7.630   4.335  1.00 20.00     0.007 A 
HETATM    4  C2  UNL     1     -35.331   6.300   3.928  1.00 20.00     0.007 A 
ENDBRANCH   1   2
BRANCH   1   5
HETATM    5  C5  UNL     1     -32.117   7.684   2.209  1.00 20.00     0.042 C 
BRANCH   5   6
HETATM    6  C6  UNL     1     -31.498   7.856   0.822  1.00 20.00     0.076 C 
BRANCH   6   7
HETATM    7  S9  UNL     1     -32.623   8.642  -0.369  1.00 20.00    -0.173 SA
HETATM    8  C4  UNL     1     -32.381  10.360   0.137  1.00 20.00     0.089 C 
ENDBRANCH   6   7
ENDBRANCH   5   6
ENDBRANCH   1   5
BRANCH   1   9
HETATM    9  O8  UNL     1     -33.083   5.545   1.698  1.00 20.00    -0.395 OA
HETATM   10  H23 UNL     1     -33.911   5.042   1.706  1.00 20.00     0.210 HD
ENDBRANCH   1   9
TORSDOF 5
