REMARK  2 active torsions:
REMARK  status: ('A' for Active; 'I' for Inactive)
REMARK    1  A    between atoms: C1_1  and  C7_7 
REMARK    2  A    between atoms: C8_8  and  C12_12 
ROOT
HETATM    1  C2  UNL     1     -32.326   5.198   1.327  1.00 20.00     0.001 C 
HETATM    2  C3  UNL     1     -32.749   5.085   2.790  1.00 20.00     0.011 C 
HETATM    3  C4  UNL     1     -33.671   7.388   3.486  1.00 20.00     0.012 C 
HETATM    4  C5  UNL     1     -31.653   6.511   0.939  1.00 20.00     0.005 C 
HETATM    5  C6  UNL     1     -32.530   8.080   2.740  1.00 20.00     0.006 C 
HETATM    6  C7  UNL     1     -33.977   5.939   3.109  1.00 20.00     0.047 C 
HETATM    7  C8  UNL     1     -32.461   7.786   1.234  1.00 20.00    -0.007 C 
ENDROOT
BRANCH   7   8
HETATM    8  C12 UNL     1     -31.792   8.968   0.519  1.00 20.00    -0.048 C 
HETATM    9  C9  UNL     1     -32.606  10.246   0.768  1.00 20.00     0.015 C 
HETATM   10  C10 UNL     1     -31.731   8.687  -0.990  1.00 20.00     0.015 C 
HETATM   11  C11 UNL     1     -30.367   9.156   1.061  1.00 20.00     0.015 C 
ENDBRANCH   7   8
BRANCH   6  12
HETATM   12  C1  UNL     1     -34.729   5.312   4.247  1.00 20.00     0.235 C 
HETATM   13  O13 UNL     1     -34.361   4.291   4.820  1.00 20.00    -0.306 OA
ENDBRANCH   6  12
TORSDOF 2
