REMARK  1 active torsions:
REMARK  status: ('A' for Active; 'I' for Inactive)
REMARK    1  A    between atoms: C1_1  and  C7_7 
ROOT
HETATM    1  C2  UNL     1     -33.815   7.825   3.839  1.00 20.00     0.001 C 
HETATM    2  C3  UNL     1     -34.412   6.429   3.686  1.00 20.00     0.011 C 
HETATM    3  C4  UNL     1     -32.982   5.220   1.967  1.00 20.00     0.012 C 
HETATM    4  C5  UNL     1     -32.458   8.118   3.200  1.00 20.00     0.008 C 
HETATM    5  C6  UNL     1     -31.910   6.231   1.566  1.00 20.00     0.009 C 
HETATM    6  C7  UNL     1     -33.416   5.300   3.432  1.00 20.00     0.047 C 
HETATM    7  C8  UNL     1     -32.244   7.734   1.717  1.00 20.00    -0.048 C 
HETATM    8  C9  UNL     1     -31.004   8.517   1.215  1.00 20.00     0.015 C 
HETATM    9  C10 UNL     1     -33.432   8.143   0.831  1.00 20.00     0.015 C 
ENDROOT
BRANCH   6  10
HETATM   10  C1  UNL     1     -34.085   4.005   3.794  1.00 20.00     0.235 C 
HETATM   11  O11 UNL     1     -33.675   3.255   4.674  1.00 20.00    -0.306 OA
ENDBRANCH   6  10
TORSDOF 1
