REMARK  2 active torsions:
REMARK  status: ('A' for Active; 'I' for Inactive)
REMARK    1  A    between atoms: C1_1  and  C7_7 
REMARK    2  A    between atoms: C8_8  and  C12_12 
ROOT
HETATM    1  C2  UNL     1     -34.333   7.834   3.748  1.00 20.00     0.001 C 
HETATM    2  C3  UNL     1     -34.688   6.365   3.541  1.00 20.00     0.011 C 
HETATM    3  C4  UNL     1     -32.844   5.261   2.189  1.00 20.00     0.012 C 
HETATM    4  C5  UNL     1     -33.058   8.350   3.084  1.00 20.00     0.005 C 
HETATM    5  C6  UNL     1     -32.027   6.463   1.720  1.00 20.00     0.006 C 
HETATM    6  C7  UNL     1     -33.493   5.413   3.567  1.00 20.00     0.047 C 
HETATM    7  C8  UNL     1     -32.781   7.804   1.674  1.00 20.00    -0.007 C 
ENDROOT
BRANCH   7   8
HETATM    8  C12 UNL     1     -31.931   8.819   0.897  1.00 20.00    -0.048 C 
HETATM    9  C9  UNL     1     -32.679  10.158   0.814  1.00 20.00     0.015 C 
HETATM   10  C10 UNL     1     -31.670   8.290  -0.521  1.00 20.00     0.015 C 
HETATM   11  C11 UNL     1     -30.592   9.026   1.620  1.00 20.00     0.015 C 
ENDBRANCH   7   8
BRANCH   6  12
HETATM   12  C1  UNL     1     -33.978   4.063   4.010  1.00 20.00     0.235 C 
HETATM   13  O13 UNL     1     -33.585   3.505   5.029  1.00 20.00    -0.306 OA
ENDBRANCH   6  12
TORSDOF 2
