REMARK  1 active torsions:
REMARK  status: ('A' for Active; 'I' for Inactive)
REMARK    1  A    between atoms: C6_6  and  C10_10 
ROOT
HETATM    1  C1  UNL     1     -32.453   5.689   1.388  1.00 20.00     0.001 C 
HETATM    2  C2  UNL     1     -31.498   6.832   1.716  1.00 20.00     0.005 C 
HETATM    3  C3  UNL     1     -33.277   8.582   2.475  1.00 20.00     0.006 C 
HETATM    4  C4  UNL     1     -33.887   5.815   1.896  1.00 20.00     0.008 C 
HETATM    5  C5  UNL     1     -33.448   7.661   3.684  1.00 20.00     0.009 C 
HETATM    6  C6  UNL     1     -32.054   8.260   1.590  1.00 20.00    -0.001 C 
HETATM    7  C7  UNL     1     -34.088   6.280   3.361  1.00 20.00    -0.048 C 
HETATM    8  C8  UNL     1     -35.613   6.381   3.600  1.00 20.00     0.015 C 
HETATM    9  C9  UNL     1     -33.530   5.226   4.336  1.00 20.00     0.015 C 
ENDROOT
BRANCH   6  10
HETATM   10  C10 UNL     1     -32.335   8.630   0.131  1.00 20.00     0.119 C 
HETATM   11 CL11 UNL     1     -32.419  10.389  -0.036  1.00 20.00    -0.130 Cl
ENDBRANCH   6  10
TORSDOF 1
