REMARK  2 active torsions:
REMARK  status: ('A' for Active; 'I' for Inactive)
REMARK    1  A    between atoms: C1_1  and  C5_5 
REMARK    2  A    between atoms: C6_6  and  C8_8 
ROOT
HETATM    1  C2  UNL     1     -33.369   6.006   1.478  1.00 20.00     0.012 C 
HETATM    2  C3  UNL     1     -31.961   6.580   1.572  1.00 20.00     0.005 C 
HETATM    3  C4  UNL     1     -33.334   7.930   3.001  1.00 20.00     0.016 C 
HETATM    4  C5  UNL     1     -34.158   6.713   2.576  1.00 20.00     0.047 C 
HETATM    5  C6  UNL     1     -32.174   8.028   2.005  1.00 20.00    -0.014 C 
ENDROOT
BRANCH   4   6
HETATM    6  C1  UNL     1     -34.295   5.770   3.757  1.00 20.00     0.235 C 
HETATM    7  O9  UNL     1     -35.376   5.423   4.222  1.00 20.00    -0.306 OA
ENDBRANCH   4   6
BRANCH   5   8
HETATM    8  C8  UNL     1     -32.509   8.942   0.827  1.00 20.00     0.000 C 
HETATM    9  C7  UNL     1     -31.396   9.002  -0.170  1.00 20.00     0.005 C 
ENDBRANCH   5   8
TORSDOF 2
