REMARK  0 active torsions:
REMARK  status: ('A' for Active; 'I' for Inactive)
ROOT
HETATM    1  C1  UNL     1     -34.592   6.133   3.564  1.00 20.00     0.066 C 
HETATM    2  C2  UNL     1     -33.894   6.692   0.700  1.00 20.00     0.038 C 
HETATM    3  C3  UNL     1     -33.371   8.124   0.814  1.00 20.00     0.273 C 
HETATM    4  C4  UNL     1     -32.762   7.793   3.122  1.00 20.00     0.292 C 
HETATM    5  C5  UNL     1     -31.656   6.683   1.401  1.00 20.00     0.278 C 
HETATM    6  C6  UNL     1     -33.211   6.326   3.115  1.00 20.00     0.127 C 
HETATM    7  C7  UNL     1     -32.958   5.938   1.651  1.00 20.00     0.035 C 
HETATM    8  N8  UNL     1     -35.686   5.981   3.919  1.00 20.00    -0.197 NA
HETATM    9  N9  UNL     1     -32.217   8.017   1.749  1.00 20.00     0.090 N 
ENDROOT
TORSDOF 0
