REMARK  2 active torsions:
REMARK  status: ('A' for Active; 'I' for Inactive)
REMARK    1  A    between atoms: C1_1  and  C7_7 
REMARK    2  A    between atoms: C8_8  and  C11_11 
ROOT
HETATM    1  C2  UNL     1     -31.807   5.931   2.285  1.00 20.00     0.001 C 
HETATM    2  C3  UNL     1     -33.295   5.589   2.225  1.00 20.00     0.011 C 
HETATM    3  C4  UNL     1     -33.595   7.898   3.404  1.00 20.00     0.012 C 
HETATM    4  C5  UNL     1     -31.375   7.126   1.428  1.00 20.00     0.005 C 
HETATM    5  C6  UNL     1     -33.117   8.822   2.285  1.00 20.00     0.005 C 
HETATM    6  C7  UNL     1     -34.230   6.584   2.939  1.00 20.00     0.047 C 
HETATM    7  C8  UNL     1     -32.461   8.153   1.071  1.00 20.00    -0.011 C 
ENDROOT
BRANCH   7   8
HETATM    8  C11 UNL     1     -31.873   9.229   0.149  1.00 20.00    -0.019 C 
HETATM    9  C9  UNL     1     -31.773   8.707  -1.279  1.00 20.00     0.010 C 
HETATM   10  C10 UNL     1     -32.720  10.495   0.207  1.00 20.00     0.010 C 
ENDBRANCH   7   8
BRANCH   6  11
HETATM   11  C1  UNL     1     -34.816   5.904   4.143  1.00 20.00     0.235 C 
HETATM   12  O12 UNL     1     -34.978   4.691   4.222  1.00 20.00    -0.306 OA
ENDBRANCH   6  11
TORSDOF 2
