REMARK  2 active torsions:
REMARK  status: ('A' for Active; 'I' for Inactive)
REMARK    1  A    between atoms: C1_1  and  C7_7 
REMARK    2  A    between atoms: C8_8  and  C10_10 
ROOT
HETATM    1  C2  UNL     1     -34.140   8.789   3.502  1.00 20.00     0.001 C 
HETATM    2  C3  UNL     1     -33.920   7.391   4.075  1.00 20.00     0.011 C 
HETATM    3  C4  UNL     1     -33.063   5.914   2.144  1.00 20.00     0.012 C 
HETATM    4  C5  UNL     1     -33.087   9.261   2.503  1.00 20.00     0.004 C 
HETATM    5  C6  UNL     1     -32.150   7.045   1.674  1.00 20.00     0.005 C 
HETATM    6  C7  UNL     1     -34.229   6.290   3.060  1.00 20.00     0.047 C 
HETATM    7  C8  UNL     1     -32.869   8.347   1.285  1.00 20.00    -0.015 C 
ENDROOT
BRANCH   6   8
HETATM    8  C1  UNL     1     -34.660   5.053   3.793  1.00 20.00     0.235 C 
HETATM    9  O11 UNL     1     -33.943   4.453   4.587  1.00 20.00    -0.306 OA
ENDBRANCH   6   8
BRANCH   7  10
HETATM   10  C10 UNL     1     -32.024   9.102   0.250  1.00 20.00     0.000 C 
HETATM   11  C9  UNL     1     -32.684  10.370  -0.172  1.00 20.00     0.005 C 
ENDBRANCH   7  10
TORSDOF 2
