REMARK  2 active torsions:
REMARK  status: ('A' for Active; 'I' for Inactive)
REMARK    1  A    between atoms: C1_1  and  C5_5 
REMARK    2  A    between atoms: C6_6  and  C8_8 
ROOT
HETATM    1  C2  UNL     1     -33.483   7.578   3.569  1.00 20.00     0.012 C 
HETATM    2  C3  UNL     1     -32.204   8.287   3.141  1.00 20.00     0.005 C 
HETATM    3  C4  UNL     1     -32.544   6.506   1.571  1.00 20.00     0.016 C 
HETATM    4  C5  UNL     1     -33.535   6.312   2.720  1.00 20.00     0.047 C 
HETATM    5  C6  UNL     1     -32.075   7.962   1.655  1.00 20.00    -0.014 C 
ENDROOT
BRANCH   4   6
HETATM    6  C1  UNL     1     -33.086   5.139   3.571  1.00 20.00     0.235 C 
HETATM    7  O9  UNL     1     -33.779   4.147   3.775  1.00 20.00    -0.306 OA
ENDBRANCH   4   6
BRANCH   5   8
HETATM    8  C8  UNL     1     -32.924   8.885   0.783  1.00 20.00     0.000 C 
HETATM    9  C7  UNL     1     -32.497  10.315   0.900  1.00 20.00     0.005 C 
ENDBRANCH   5   8
TORSDOF 2
