REMARK  4 active torsions:
REMARK  status: ('A' for Active; 'I' for Inactive)
REMARK    1  A    between atoms: C5_5  and  C7_7 
REMARK    2  A    between atoms: C5_5  and  C8_8 
REMARK    3  A    between atoms: C6_6  and  C7_7 
REMARK    4  A    between atoms: C8_8  and  O9_9 
ROOT
HETATM    1  C5  UNL     1     -33.809   5.636   2.216  1.00 20.00     0.042 C 
ENDROOT
BRANCH   1   2
HETATM    2  C7  UNL     1     -34.011   5.863   3.735  1.00 20.00    -0.002 C 
HETATM    3  C1  UNL     1     -34.754   7.189   3.954  1.00 20.00     0.011 C 
BRANCH   2   4
HETATM    4  C6  UNL     1     -34.702   4.720   4.493  1.00 20.00     0.119 C 
HETATM    5 CL10 UNL     1     -33.670   3.288   4.724  1.00 20.00    -0.130 Cl
ENDBRANCH   2   4
ENDBRANCH   1   2
BRANCH   1   6
HETATM    6  C8  UNL     1     -32.620   6.354   1.536  1.00 20.00     0.053 C 
HETATM    7  C2  UNL     1     -31.322   5.597   1.843  1.00 20.00     0.045 C 
HETATM    8  C3  UNL     1     -32.793   6.478   0.022  1.00 20.00     0.045 C 
BRANCH   6   9
HETATM    9  O9  UNL     1     -32.471   7.672   2.063  1.00 20.00    -0.386 OA
HETATM   10  C4  UNL     1     -31.371   8.344   1.469  1.00 20.00     0.202 C 
ENDBRANCH   6   9
ENDBRANCH   1   6
TORSDOF 4
