REMARK  2 active torsions:
REMARK  status: ('A' for Active; 'I' for Inactive)
REMARK    1  A    between atoms: C4_4  and  C8_8 
REMARK    2  A    between atoms: C5_5  and  C9_9 
ROOT
HETATM    1  C1  UNL     1     -34.965   4.675   4.917  1.00 20.00     0.032 C 
HETATM    2  C2  UNL     1     -33.014   4.816   3.356  1.00 20.00     0.043 C 
HETATM    3  C3  UNL     1     -35.521   5.922   4.245  1.00 20.00     0.169 C 
HETATM    4  C4  UNL     1     -34.079   3.885   3.951  1.00 20.00     0.004 C 
HETATM    5  C5  UNL     1     -33.621   6.102   2.763  1.00 20.00     0.057 C 
HETATM    6  C6  UNL     1     -34.372   5.838   1.450  1.00 20.00     0.046 C 
HETATM    7  O10 UNL     1     -34.478   6.740   3.721  1.00 20.00    -0.381 OA
ENDROOT
BRANCH   5   8
HETATM    8  C9  UNL     1     -32.493   7.104   2.477  1.00 20.00     0.033 C 
HETATM    9  C7  UNL     1     -31.506   6.549   1.507  1.00 20.00     0.008 C 
ENDBRANCH   5   8
BRANCH   4  10
HETATM   10  C8  UNL     1     -33.433   2.692   4.652  1.00 20.00     0.119 C 
HETATM   11 CL11 UNL     1     -32.422   3.249   5.996  1.00 20.00    -0.130 Cl
ENDBRANCH   4  10
TORSDOF 2
