REMARK  3 active torsions:
REMARK  status: ('A' for Active; 'I' for Inactive)
REMARK    1  A    between atoms: C6_6  and  C9_9 
REMARK    2  A    between atoms: C7_7  and  C10_10 
REMARK    3  A    between atoms: C9_9  and  C11_11 
ROOT
HETATM    1  C1  UNL     1     -34.042   8.246   4.265  1.00 20.00     0.001 C 
HETATM    2  C2  UNL     1     -34.622   6.878   3.910  1.00 20.00     0.005 C 
HETATM    3  C3  UNL     1     -33.339   8.985   3.131  1.00 20.00     0.005 C 
HETATM    4  C4  UNL     1     -32.969   5.750   2.297  1.00 20.00     0.005 C 
HETATM    5  C5  UNL     1     -32.723   7.074   1.575  1.00 20.00     0.006 C 
HETATM    6  C6  UNL     1     -33.538   5.808   3.721  1.00 20.00    -0.014 C 
HETATM    7  C7  UNL     1     -32.192   8.219   2.450  1.00 20.00    -0.001 C 
ENDROOT
BRANCH   6   8
HETATM    8  C9  UNL     1     -34.085   4.425   4.098  1.00 20.00     0.004 C 
BRANCH   8   9
HETATM    9  C11 UNL     1     -32.952   3.442   4.357  1.00 20.00    -0.004 C 
HETATM   10  C8  UNL     1     -33.494   2.078   4.754  1.00 20.00     0.005 C 
ENDBRANCH   8   9
ENDBRANCH   6   8
BRANCH   7  11
HETATM   11  C10 UNL     1     -31.398   9.198   1.574  1.00 20.00     0.119 C 
HETATM   12 CL12 UNL     1     -32.455   9.894   0.337  1.00 20.00    -0.130 Cl
ENDBRANCH   7  11
TORSDOF 3
