REMARK  2 active torsions:
REMARK  status: ('A' for Active; 'I' for Inactive)
REMARK    1  A    between atoms: C5_5  and  C8_8 
REMARK    2  A    between atoms: C6_6  and  C9_9 
ROOT
HETATM    1  C1  UNL     1     -32.536   6.039   0.555  1.00 20.00     0.001 C 
HETATM    2  C2  UNL     1     -31.310   6.950   0.530  1.00 20.00     0.005 C 
HETATM    3  C3  UNL     1     -33.117   5.915   1.961  1.00 20.00     0.005 C 
HETATM    4  C4  UNL     1     -32.195   8.196   2.544  1.00 20.00     0.010 C 
HETATM    5  C5  UNL     1     -31.575   8.331   1.145  1.00 20.00    -0.014 C 
HETATM    6  C6  UNL     1     -33.433   7.286   2.572  1.00 20.00    -0.000 C 
ENDROOT
BRANCH   5   7
HETATM    7  C8  UNL     1     -32.431   9.206   0.225  1.00 20.00     0.000 C 
HETATM    8  C7  UNL     1     -32.634  10.570   0.796  1.00 20.00     0.005 C 
ENDBRANCH   5   7
BRANCH   6   9
HETATM    9  C9  UNL     1     -33.951   7.129   4.002  1.00 20.00     0.119 C 
HETATM   10 CL10 UNL     1     -35.434   6.161   4.006  1.00 20.00    -0.130 Cl
ENDBRANCH   6   9
TORSDOF 2
