REMARK  2 active torsions:
REMARK  status: ('A' for Active; 'I' for Inactive)
REMARK    1  A    between atoms: C1_1  and  C7_7 
REMARK    2  A    between atoms: C8_8  and  C10_10 
ROOT
HETATM    1  C2  UNL     1     -32.195   5.403   1.553  1.00 20.00     0.001 C 
HETATM    2  C3  UNL     1     -33.207   5.369   2.706  1.00 20.00     0.011 C 
HETATM    3  C4  UNL     1     -33.259   7.889   3.251  1.00 20.00     0.012 C 
HETATM    4  C5  UNL     1     -32.455   6.465   0.488  1.00 20.00     0.004 C 
HETATM    5  C6  UNL     1     -32.008   8.167   2.416  1.00 20.00     0.005 C 
HETATM    6  C7  UNL     1     -34.063   6.627   2.912  1.00 20.00     0.047 C 
HETATM    7  C8  UNL     1     -32.097   7.898   0.911  1.00 20.00    -0.015 C 
ENDROOT
BRANCH   6   8
HETATM    8  C1  UNL     1     -35.101   6.373   4.013  1.00 20.00     0.235 C 
HETATM    9  O11 UNL     1     -35.159   5.333   4.660  1.00 20.00    -0.306 OA
ENDBRANCH   6   8
BRANCH   7  10
HETATM   10  C10 UNL     1     -33.042   8.868   0.264  1.00 20.00     0.000 C 
HETATM   11  C9  UNL     1     -32.651  10.280   0.545  1.00 20.00     0.005 C 
ENDBRANCH   7  10
TORSDOF 2
