REMARK  2 active torsions:
REMARK  status: ('A' for Active; 'I' for Inactive)
REMARK    1  A    between atoms: C4_4  and  C8_8 
REMARK    2  A    between atoms: C5_5  and  C9_9 
ROOT
HETATM    1  C1  UNL     1     -32.035   6.944   0.435  1.00 20.00     0.032 C 
HETATM    2  C2  UNL     1     -33.452   8.234   2.044  1.00 20.00     0.043 C 
HETATM    3  C3  UNL     1     -32.042   5.797   1.435  1.00 20.00     0.169 C 
HETATM    4  C4  UNL     1     -32.209   8.287   1.147  1.00 20.00     0.004 C 
HETATM    5  C5  UNL     1     -33.452   7.009   2.979  1.00 20.00     0.057 C 
HETATM    6  C6  UNL     1     -32.426   7.144   4.114  1.00 20.00     0.046 C 
HETATM    7  O10 UNL     1     -33.226   5.806   2.229  1.00 20.00    -0.381 OA
ENDROOT
BRANCH   5   8
HETATM    8  C9  UNL     1     -34.845   6.855   3.607  1.00 20.00     0.033 C 
HETATM    9  C7  UNL     1     -34.902   5.682   4.524  1.00 20.00     0.008 C 
ENDBRANCH   5   8
BRANCH   4  10
HETATM   10  C8  UNL     1     -32.311   9.431   0.140  1.00 20.00     0.119 C 
HETATM   11 CL11 UNL     1     -30.835   9.514  -0.838  1.00 20.00    -0.130 Cl
ENDBRANCH   4  10
TORSDOF 2
