REMARK  4 active torsions:
REMARK  status: ('A' for Active; 'I' for Inactive)
REMARK    1  A    between atoms: C2_2  and  C8_8 
REMARK    2  A    between atoms: C5_5  and  C9_9 
REMARK    3  A    between atoms: C8_8  and  N10_10 
REMARK    4  A    between atoms: C9_9  and  N10_10 
ROOT
HETATM    1  C1  UNL     1     -33.596   3.724   4.455  1.00 20.00    -0.109 C 
HETATM    2  C2  UNL     1     -34.049   4.731   3.983  1.00 20.00    -0.077 C 
HETATM    3  C7  UNL     1     -33.044   2.497   5.029  1.00 20.00     0.112 C 
ENDROOT
BRANCH   2   4
HETATM    4  C8  UNL     1     -34.609   5.957   3.408  1.00 20.00     0.362 C 
BRANCH   4   5
HETATM    5  N10 UNL     1     -33.544   6.846   2.930  1.00 20.00     0.094 N 
HETATM    6  H25 UNL     1     -32.946   7.083   3.734  1.00 20.00     0.317 HD
BRANCH   5   7
HETATM    7  C9  UNL     1     -32.774   6.245   1.888  1.00 20.00     0.275 C 
BRANCH   7   8
HETATM    8  C5  UNL     1     -32.048   7.309   1.092  1.00 20.00     0.018 C 
HETATM    9  C3  UNL     1     -32.876   8.060   0.013  1.00 20.00     0.041 C 
HETATM   10  C6  UNL     1     -32.068   9.325   0.387  1.00 20.00     0.161 C 
HETATM   11  C4  UNL     1     -31.858   8.688   1.782  1.00 20.00     0.041 C 
HETATM   12  O11 UNL     1     -32.843  10.492   0.419  1.00 20.00    -0.235 OA
ENDBRANCH   7   8
ENDBRANCH   5   7
ENDBRANCH   4   5
ENDBRANCH   2   4
TORSDOF 4
