REMARK  3 active torsions:
REMARK  status: ('A' for Active; 'I' for Inactive)
REMARK    1  A    between atoms: C6_6  and  C8_8 
REMARK    2  A    between atoms: C6_6  and  C9_9 
REMARK    3  A    between atoms: C7_7  and  C9_9 
ROOT
HETATM    1  C4  UNL     1     -33.904   5.636   0.975  1.00 20.00     0.015 C 
HETATM    2  C5  UNL     1     -31.807   5.749   2.297  1.00 20.00     0.015 C 
HETATM    3  C9  UNL     1     -33.261   6.268   2.236  1.00 20.00    -0.043 C 
ENDROOT
BRANCH   3   4
HETATM    4  C6  UNL     1     -33.276   7.820   2.007  1.00 20.00     0.029 C 
BRANCH   4   5
HETATM    5  C8  UNL     1     -32.221   8.444   1.073  1.00 20.00     0.079 C 
HETATM    6  C3  UNL     1     -30.904   8.655   1.819  1.00 20.00     0.026 C 
HETATM    7 CL10 UNL     1     -32.746  10.027   0.430  1.00 20.00    -0.125 Cl
ENDBRANCH   4   5
ENDBRANCH   3   4
BRANCH   3   8
HETATM    8  C7  UNL     1     -34.033   5.847   3.543  1.00 20.00    -0.015 C 
HETATM    9  C1  UNL     1     -35.498   6.306   3.576  1.00 20.00     0.010 C 
HETATM   10  C2  UNL     1     -33.996   4.338   3.833  1.00 20.00     0.010 C 
ENDBRANCH   3   8
TORSDOF 3
