REMARK  0 active torsions:
REMARK  status: ('A' for Active; 'I' for Inactive)
ROOT
HETATM    1  C1  UNL     1     -33.933   6.637   3.328  1.00 20.00    -0.085 C 
HETATM    2  C2  UNL     1     -35.139   6.449   3.877  1.00 20.00     0.014 C 
HETATM    3  C3  UNL     1     -33.135   7.910   3.439  1.00 20.00     0.034 C 
HETATM    4  C4  UNL     1     -32.267   8.141   2.187  1.00 20.00     0.009 C 
HETATM    5  C5  UNL     1     -33.181   6.052   0.990  1.00 20.00     0.013 C 
HETATM    6  C6  UNL     1     -31.757   5.607   2.481  1.00 20.00     0.013 C 
HETATM    7  C7  UNL     1     -33.323   5.571   2.469  1.00 20.00     0.014 C 
HETATM    8  C8  UNL     1     -31.915   6.810   1.500  1.00 20.00    -0.013 C 
ENDROOT
TORSDOF 0
