REMARK  3 active torsions:
REMARK  status: ('A' for Active; 'I' for Inactive)
REMARK    1  A    between atoms: C3_3  and  N7_7 
REMARK    2  A    between atoms: C5_5  and  C6_6 
REMARK    3  A    between atoms: C5_5  and  N7_7 
ROOT
HETATM    1  N7  UNL     1     -34.689   6.899   4.059  1.00 20.00     0.093 N 
HETATM    2  H20 UNL     1     -35.569   7.242   4.445  1.00 20.00     0.316 HD
ENDROOT
BRANCH   1   3
HETATM    3  C3  UNL     1     -34.849   5.507   3.667  1.00 20.00     0.223 C 
HETATM    4  C1  UNL     1     -33.458   4.843   3.564  1.00 20.00     0.055 C 
HETATM    5  C4  UNL     1     -34.083   3.633   4.308  1.00 20.00     0.086 C 
HETATM    6  C2  UNL     1     -35.081   4.645   4.929  1.00 20.00     0.055 C 
HETATM    7 CL10 UNL     1     -33.052   2.665   5.395  1.00 20.00    -0.125 Cl
ENDBRANCH   1   3
BRANCH   1   8
HETATM    8  C5  UNL     1     -34.314   7.721   2.917  1.00 20.00     0.340 C 
BRANCH   8   9
HETATM    9  C6  UNL     1     -32.835   7.579   2.622  1.00 20.00     0.381 C 
HETATM   10  F8  UNL     1     -32.419   8.606   1.839  1.00 20.00    -0.213 F 
HETATM   11  F9  UNL     1     -32.633   6.443   1.906  1.00 20.00    -0.213 F 
ENDBRANCH   8   9
ENDBRANCH   1   8
TORSDOF 3
