REMARK  4 active torsions:
REMARK  status: ('A' for Active; 'I' for Inactive)
REMARK    1  A    between atoms: C5_5  and  C7_7 
REMARK    2  A    between atoms: C5_5  and  C8_8 
REMARK    3  A    between atoms: C6_6  and  C8_8 
REMARK    4  A    between atoms: C6_6  and  C9_9 
ROOT
HETATM    1  C3  UNL     1     -32.072   5.212   1.226  1.00 20.00     0.010 C 
HETATM    2  C8  UNL     1     -32.493   6.587   1.752  1.00 20.00    -0.017 C 
ENDROOT
BRANCH   2   3
HETATM    3  C5  UNL     1     -33.909   6.550   2.377  1.00 20.00     0.008 C 
BRANCH   3   4
HETATM    4  C7  UNL     1     -34.001   6.057   3.836  1.00 20.00    -0.023 C 
HETATM    5  C1  UNL     1     -33.483   4.629   4.007  1.00 20.00     0.009 C 
HETATM    6  C2  UNL     1     -35.455   6.139   4.314  1.00 20.00     0.009 C 
ENDBRANCH   3   4
ENDBRANCH   2   3
BRANCH   2   7
HETATM    7  C6  UNL     1     -32.480   7.656   0.630  1.00 20.00     0.024 C 
BRANCH   7   8
HETATM    8  C9  UNL     1     -32.355   9.119   1.086  1.00 20.00     0.078 C 
HETATM    9  C4  UNL     1     -30.915   9.448   1.465  1.00 20.00     0.026 C 
HETATM   10 CL10 UNL     1     -32.883  10.243  -0.200  1.00 20.00    -0.125 Cl
ENDBRANCH   7   8
ENDBRANCH   2   7
TORSDOF 4
