REMARK  2 active torsions:
REMARK  status: ('A' for Active; 'I' for Inactive)
REMARK    1  A    between atoms: C5_5  and  C6_6 
REMARK    2  A    between atoms: C6_6  and  C7_7 
ROOT
HETATM    1  C1  UNL     1     -32.680   9.668   0.580  1.00 20.00     0.012 C 
HETATM    2  C2  UNL     1     -32.292   8.635   1.054  1.00 20.00    -0.117 C 
HETATM    3  C5  UNL     1     -31.811   7.368   1.630  1.00 20.00     0.098 C 
ENDROOT
BRANCH   3   4
HETATM    4  C6  UNL     1     -32.956   6.549   2.266  1.00 20.00     0.006 C 
HETATM    5  C3  UNL     1     -32.430   5.197   2.774  1.00 20.00     0.012 C 
BRANCH   4   6
HETATM    6  C7  UNL     1     -33.678   7.291   3.413  1.00 20.00     0.058 C 
HETATM    7  C4  UNL     1     -32.861   7.512   4.678  1.00 20.00     0.022 C 
HETATM    8 BR8  UNL     1     -35.320   6.321   3.900  1.00 20.00    -0.091 Br
ENDBRANCH   4   6
ENDBRANCH   3   4
TORSDOF 2
