REMARK  2 active torsions:
REMARK  status: ('A' for Active; 'I' for Inactive)
REMARK    1  A    between atoms: C8_8  and  C9_9 
REMARK    2  A    between atoms: C9_9  and  O11_11 
ROOT
HETATM    1  C1  UNL     1     -31.707   8.316  -0.732  1.00 20.00     0.003 C 
HETATM    2  C2  UNL     1     -32.291   9.660  -0.294  1.00 20.00     0.003 C 
HETATM    3  C3  UNL     1     -32.048   7.323   0.377  1.00 20.00     0.038 C 
HETATM    4  C4  UNL     1     -32.936   9.422   1.071  1.00 20.00     0.038 C 
HETATM    5  C9  UNL     1     -32.214   8.194   1.620  1.00 20.00     0.063 C 
ENDROOT
BRANCH   5   6
HETATM    6  C8  UNL     1     -32.973   7.507   2.744  1.00 20.00     0.046 C 
HETATM    7  C5  UNL     1     -34.396   7.132   2.392  1.00 20.00     0.036 C 
HETATM    8  C6  UNL     1     -35.013   6.952   3.763  1.00 20.00     0.168 C 
HETATM    9  O10 UNL     1     -34.339   7.862   4.645  1.00 20.00    -0.391 OA
HETATM   10  C7  UNL     1     -33.188   8.386   3.964  1.00 20.00     0.175 C 
ENDBRANCH   5   6
BRANCH   5  11
HETATM   11  O11 UNL     1     -30.932   8.592   2.104  1.00 20.00    -0.389 OA
HETATM   12  H27 UNL     1     -31.092   9.139   2.888  1.00 20.00     0.210 HD
ENDBRANCH   5  11
TORSDOF 2
