REMARK  3 active torsions:
REMARK  status: ('A' for Active; 'I' for Inactive)
REMARK    1  A    between atoms: C5_5  and  S11_11 
REMARK    2  A    between atoms: C7_7  and  C8_8 
REMARK    3  A    between atoms: C8_8  and  S11_11 
ROOT
HETATM    1  C1  UNL     1     -32.452   6.475   1.492  1.00 20.00     0.080 C 
HETATM    2  C2  UNL     1     -33.474   8.811   1.493  1.00 20.00     0.071 C 
HETATM    3  C3  UNL     1     -31.344   8.759   1.246  1.00 20.00     0.071 C 
HETATM    4  C4  UNL     1     -32.515   9.257   0.362  1.00 20.00     0.165 C 
HETATM    5  C5  UNL     1     -32.362   7.837   1.969  1.00 20.00     0.101 C 
HETATM    6  N9  UNL     1     -32.524   5.382   1.110  1.00 20.00    -0.196 NA
HETATM    7  O10 UNL     1     -32.505  10.643   0.154  1.00 20.00    -0.235 OA
ENDROOT
BRANCH   5   8
HETATM    8  S11 UNL     1     -32.152   7.864   3.784  1.00 20.00    -0.144 SA
BRANCH   8   9
HETATM    9  C8  UNL     1     -33.880   7.602   4.240  1.00 20.00     0.075 C 
BRANCH   9  10
HETATM   10  C7  UNL     1     -34.233   6.121   4.166  1.00 20.00     0.006 C 
HETATM   11  C6  UNL     1     -35.686   5.885   4.551  1.00 20.00     0.006 C 
ENDBRANCH   9  10
ENDBRANCH   8   9
ENDBRANCH   5   8
TORSDOF 3
