REMARK  3 active torsions:
REMARK  status: ('A' for Active; 'I' for Inactive)
REMARK    1  A    between atoms: C6_6  and  C8_8 
REMARK    2  A    between atoms: C7_7  and  C8_8 
REMARK    3  A    between atoms: C7_7  and  C9_9 
ROOT
HETATM    1  C8  UNL     1     -31.736   7.716   1.782  1.00 20.00     0.042 C 
ENDROOT
BRANCH   1   2
HETATM    2  C6  UNL     1     -32.361   9.040   1.388  1.00 20.00     0.122 C 
HETATM    3  C2  UNL     1     -31.343  10.132   1.109  1.00 20.00     0.034 C 
HETATM    4  C1  UNL     1     -32.111  11.026   0.169  1.00 20.00     0.029 C 
HETATM    5  C5  UNL     1     -32.880  10.020  -0.662  1.00 20.00     0.168 C 
HETATM    6  O10 UNL     1     -33.119   8.880   0.177  1.00 20.00    -0.386 OA
ENDBRANCH   1   2
BRANCH   1   7
HETATM    7  C7  UNL     1     -32.769   6.672   2.079  1.00 20.00    -0.025 A 
HETATM    8  C3  UNL     1     -33.388   5.936   0.915  1.00 20.00     0.011 A 
HETATM    9  C4  UNL     1     -32.414   5.228   1.813  1.00 20.00     0.011 A 
BRANCH   7  10
HETATM   10  C9  UNL     1     -33.642   6.977   3.266  1.00 20.00     0.124 C 
HETATM   11 CL11 UNL     1     -34.724   5.609   3.623  1.00 20.00    -0.130 Cl
ENDBRANCH   7  10
ENDBRANCH   1   7
TORSDOF 3
