REMARK  5 active torsions:
REMARK  status: ('A' for Active; 'I' for Inactive)
REMARK    1  A    between atoms: C2_2  and  C5_5 
REMARK    2  A    between atoms: C2_2  and  C6_6 
REMARK    3  A    between atoms: C6_6  and  C7_7 
REMARK    4  A    between atoms: C7_7  and  C8_8 
REMARK    5  A    between atoms: C8_8  and  C9_9 
ROOT
HETATM    1  C6  UNL     1     -31.779   6.922   2.030  1.00 20.00     0.033 C 
ENDROOT
BRANCH   1   2
HETATM    2  C2  UNL     1     -32.255   8.359   1.943  1.00 20.00    -0.090 C 
HETATM    3  C1  UNL     1     -32.534   9.040   3.068  1.00 20.00     0.014 C 
BRANCH   2   4
HETATM    4  C5  UNL     1     -32.416   8.913   0.542  1.00 20.00     0.029 C 
HETATM    5  C3  UNL     1     -32.929  10.344   0.415  1.00 20.00     0.010 C 
ENDBRANCH   2   4
ENDBRANCH   1   2
BRANCH   1   6
HETATM    6  C7  UNL     1     -32.736   5.940   1.345  1.00 20.00     0.006 C 
BRANCH   6   7
HETATM    7  C8  UNL     1     -34.116   5.959   2.013  1.00 20.00     0.020 C 
BRANCH   7   8
HETATM    8  C9  UNL     1     -34.082   5.555   3.493  1.00 20.00     0.078 C 
HETATM    9  C4  UNL     1     -33.521   4.149   3.665  1.00 20.00     0.026 C 
HETATM   10 CL10 UNL     1     -35.718   5.616   4.214  1.00 20.00    -0.125 Cl
ENDBRANCH   7   8
ENDBRANCH   6   7
ENDBRANCH   1   6
TORSDOF 5
