REMARK  5 active torsions:
REMARK  status: ('A' for Active; 'I' for Inactive)
REMARK    1  A    between atoms: C2_2  and  C8_8 
REMARK    2  A    between atoms: C2_2  and  C9_9 
REMARK    3  A    between atoms: C6_6  and  C10_10 
REMARK    4  A    between atoms: C9_9  and  C10_10 
REMARK    5  A    between atoms: C10_10  and  O11_11 
ROOT
HETATM    1  C10 UNL     1     -32.915   7.014   2.067  1.00 20.00     0.126 C 
ENDROOT
BRANCH   1   2
HETATM    2  C6  UNL     1     -33.246   6.713   3.521  1.00 20.00     0.015 C 
HETATM    3  C4  UNL     1     -34.161   5.488   3.770  1.00 20.00     0.007 C 
HETATM    4  C3  UNL     1     -35.358   6.458   3.814  1.00 20.00     0.001 C 
HETATM    5  C5  UNL     1     -34.360   7.581   4.158  1.00 20.00     0.007 C 
ENDBRANCH   1   2
BRANCH   1   6
HETATM    6  C9  UNL     1     -31.951   8.204   1.987  1.00 20.00     0.065 C 
BRANCH   6   7
HETATM    7  C2  UNL     1     -31.907   8.848   0.613  1.00 20.00    -0.087 C 
HETATM    8  C1  UNL     1     -30.988   8.450  -0.284  1.00 20.00     0.014 C 
BRANCH   7   9
HETATM    9  C8  UNL     1     -32.967   9.898   0.346  1.00 20.00     0.029 C 
HETATM   10  C7  UNL     1     -32.606  11.345   0.663  1.00 20.00     0.010 C 
ENDBRANCH   7   9
ENDBRANCH   6   7
ENDBRANCH   1   6
BRANCH   1  11
HETATM   11  O11 UNL     1     -32.285   5.866   1.504  1.00 20.00    -0.395 OA
HETATM   12  H29 UNL     1     -31.482   5.708   2.024  1.00 20.00     0.210 HD
ENDBRANCH   1  11
TORSDOF 5
