REMARK  2 active torsions:
REMARK  status: ('A' for Active; 'I' for Inactive)
REMARK    1  A    between atoms: C5_5  and  C6_6 
REMARK    2  A    between atoms: C6_6  and  O8_8 
ROOT
HETATM    1  C1  UNL     1     -34.071   4.867   3.989  1.00 20.00     0.097 C 
HETATM    2  C3  UNL     1     -35.879   6.485   3.586  1.00 20.00     0.062 C 
HETATM    3  C6  UNL     1     -34.366   6.246   3.556  1.00 20.00     0.144 C 
HETATM    4  N7  UNL     1     -33.840   3.783   4.331  1.00 20.00    -0.194 NA
ENDROOT
BRANCH   3   5
HETATM    5  C5  UNL     1     -33.823   6.514   2.139  1.00 20.00     0.049 C 
HETATM    6  C2  UNL     1     -32.312   6.344   2.004  1.00 20.00     0.009 C 
ENDBRANCH   3   5
BRANCH   3   7
HETATM    7  O8  UNL     1     -33.756   7.171   4.457  1.00 20.00    -0.371 OA
HETATM    8  C4  UNL     1     -34.017   8.511   4.074  1.00 20.00     0.204 C 
ENDBRANCH   3   7
TORSDOF 2
