REMARK  4 active torsions:
REMARK  status: ('A' for Active; 'I' for Inactive)
REMARK    1  A    between atoms: C3_3  and  C6_6 
REMARK    2  A    between atoms: C3_3  and  C7_7 
REMARK    3  A    between atoms: C6_6  and  C9_9 
REMARK    4  A    between atoms: C8_8  and  C9_9 
ROOT
HETATM    1  C1  UNL     1     -33.541   5.377   0.895  1.00 20.00     0.011 A 
HETATM    2  C2  UNL     1     -32.120   5.513   1.362  1.00 20.00     0.011 A 
HETATM    3  C3  UNL     1     -33.213   6.301   2.044  1.00 20.00    -0.027 A 
ENDROOT
BRANCH   3   4
HETATM    4  C6  UNL     1     -33.275   7.802   1.792  1.00 20.00     0.015 C 
BRANCH   4   5
HETATM    5  C9  UNL     1     -32.039   8.363   1.057  1.00 20.00    -0.018 C 
HETATM    6  C5  UNL     1     -30.853   8.548   2.008  1.00 20.00     0.010 C 
BRANCH   5   7
HETATM    7  C8  UNL     1     -32.428   9.688   0.368  1.00 20.00    -0.000 C 
HETATM    8  C4  UNL     1     -32.859  10.781   1.336  1.00 20.00     0.005 C 
ENDBRANCH   5   7
ENDBRANCH   4   5
ENDBRANCH   3   4
BRANCH   3   9
HETATM    9  C7  UNL     1     -33.627   5.882   3.427  1.00 20.00     0.124 C 
HETATM   10 CL10 UNL     1     -35.351   6.230   3.705  1.00 20.00    -0.130 Cl
ENDBRANCH   3   9
TORSDOF 4
