REMARK  4 active torsions:
REMARK  status: ('A' for Active; 'I' for Inactive)
REMARK    1  A    between atoms: C3_3  and  C6_6 
REMARK    2  A    between atoms: C3_3  and  C7_7 
REMARK    3  A    between atoms: C6_6  and  C8_8 
REMARK    4  A    between atoms: C8_8  and  C9_9 
ROOT
HETATM    1  C1  UNL     1     -33.809   6.760   1.049  1.00 20.00     0.011 A 
HETATM    2  C2  UNL     1     -33.199   5.687   1.906  1.00 20.00     0.011 A 
HETATM    3  C3  UNL     1     -33.106   7.133   2.333  1.00 20.00    -0.028 A 
ENDROOT
BRANCH   3   4
HETATM    4  C6  UNL     1     -31.753   7.821   2.231  1.00 20.00     0.011 C 
BRANCH   4   5
HETATM    5  C8  UNL     1     -31.906   9.307   1.895  1.00 20.00     0.005 C 
BRANCH   5   6
HETATM    6  C9  UNL     1     -32.561   9.561   0.525  1.00 20.00    -0.023 C 
HETATM    7  C4  UNL     1     -31.710   8.931  -0.581  1.00 20.00     0.009 C 
HETATM    8  C5  UNL     1     -32.757  11.051   0.238  1.00 20.00     0.009 C 
ENDBRANCH   5   6
ENDBRANCH   4   5
ENDBRANCH   3   4
BRANCH   3   9
HETATM    9  C7  UNL     1     -33.949   7.581   3.494  1.00 20.00     0.124 C 
HETATM   10 CL10 UNL     1     -35.436   6.609   3.609  1.00 20.00    -0.130 Cl
ENDBRANCH   3   9
TORSDOF 4
