REMARK  4 active torsions:
REMARK  status: ('A' for Active; 'I' for Inactive)
REMARK    1  A    between atoms: C3_3  and  C5_5 
REMARK    2  A    between atoms: C4_4  and  C7_7 
REMARK    3  A    between atoms: C5_5  and  C7_7 
REMARK    4  A    between atoms: C6_6  and  C7_7 
ROOT
HETATM    1  C7  UNL     1     -33.920   6.323   3.067  1.00 20.00    -0.001 C 
ENDROOT
BRANCH   1   2
HETATM    2  C4  UNL     1     -32.910   7.244   2.342  1.00 20.00     0.001 C 
HETATM    3  C2  UNL     1     -32.124   6.543   1.241  1.00 20.00     0.005 C 
ENDBRANCH   1   2
BRANCH   1   4
HETATM    4  C5  UNL     1     -33.219   5.091   3.684  1.00 20.00     0.005 C 
BRANCH   4   5
HETATM    5  C3  UNL     1     -34.135   4.068   4.365  1.00 20.00    -0.004 C 
HETATM    6  C1  UNL     1     -33.384   2.909   5.001  1.00 20.00     0.005 C 
ENDBRANCH   4   5
ENDBRANCH   1   4
BRANCH   1   7
HETATM    7  C6  UNL     1     -34.755   7.133   4.078  1.00 20.00     0.119 C 
HETATM    8 CL8  UNL     1     -33.773   7.953   5.317  1.00 20.00    -0.130 Cl
ENDBRANCH   1   7
TORSDOF 4
