REMARK  5 active torsions:
REMARK  status: ('A' for Active; 'I' for Inactive)
REMARK    1  A    between atoms: C3_3  and  C6_6 
REMARK    2  A    between atoms: C3_3  and  C7_7 
REMARK    3  A    between atoms: C6_6  and  C10_10 
REMARK    4  A    between atoms: C8_8  and  C9_9 
REMARK    5  A    between atoms: C9_9  and  C10_10 
ROOT
HETATM    1  C6  UNL     1     -33.890   7.234   2.403  1.00 20.00     0.015 C 
ENDROOT
BRANCH   1   2
HETATM    2  C3  UNL     1     -34.155   6.131   3.417  1.00 20.00    -0.027 A 
HETATM    3  C1  UNL     1     -34.182   6.505   4.881  1.00 20.00     0.011 A 
HETATM    4  C2  UNL     1     -35.462   6.163   4.175  1.00 20.00     0.011 A 
BRANCH   2   5
HETATM    5  C7  UNL     1     -33.590   4.788   3.043  1.00 20.00     0.124 C 
HETATM    6 CL11 UNL     1     -34.088   3.543   4.215  1.00 20.00    -0.130 Cl
ENDBRANCH   2   5
ENDBRANCH   1   2
BRANCH   1   7
HETATM    7  C10 UNL     1     -32.415   7.669   2.333  1.00 20.00    -0.018 C 
HETATM    8  C5  UNL     1     -32.074   8.540   3.547  1.00 20.00     0.010 C 
BRANCH   7   9
HETATM    9  C9  UNL     1     -32.013   8.362   1.014  1.00 20.00     0.004 C 
BRANCH   9  10
HETATM   10  C8  UNL     1     -32.955   9.475   0.549  1.00 20.00    -0.004 C 
HETATM   11  C4  UNL     1     -32.435  10.146  -0.715  1.00 20.00     0.005 C 
ENDBRANCH   9  10
ENDBRANCH   7   9
ENDBRANCH   1   7
TORSDOF 5
