REMARK  2 active torsions:
REMARK  status: ('A' for Active; 'I' for Inactive)
REMARK    1  A    between atoms: C5_5  and  O9_9 
REMARK    2  A    between atoms: C7_7  and  O9_9 
ROOT
HETATM    1  C1  UNL     1     -32.929   6.444   1.971  1.00 20.00     0.098 C 
HETATM    2  C2  UNL     1     -34.503   7.616   4.248  1.00 20.00     0.008 C 
HETATM    3  C3  UNL     1     -34.601   8.153   2.809  1.00 20.00     0.054 C 
HETATM    4  C4  UNL     1     -32.973   7.748   4.142  1.00 20.00     0.054 C 
HETATM    5  C5  UNL     1     -33.117   7.739   2.594  1.00 20.00     0.148 C 
HETATM    6  N8  UNL     1     -32.779   5.407   1.473  1.00 20.00    -0.194 NA
ENDROOT
BRANCH   5   7
HETATM    7  O9  UNL     1     -32.303   8.700   1.892  1.00 20.00    -0.366 OA
BRANCH   7   8
HETATM    8  C7  UNL     1     -32.935   9.114   0.697  1.00 20.00     0.165 C 
HETATM    9  C6  UNL     1     -32.050  10.119  -0.007  1.00 20.00     0.033 C 
ENDBRANCH   7   8
ENDBRANCH   5   7
TORSDOF 2
