REMARK  5 active torsions:
REMARK  status: ('A' for Active; 'I' for Inactive)
REMARK    1  A    between atoms: C2_2  and  C5_5 
REMARK    2  A    between atoms: C2_2  and  C6_6 
REMARK    3  A    between atoms: C6_6  and  C7_7 
REMARK    4  A    between atoms: C7_7  and  C9_9 
REMARK    5  A    between atoms: C8_8  and  C9_9 
ROOT
HETATM    1  C6  UNL     1     -32.013   6.665   1.981  1.00 20.00     0.033 C 
ENDROOT
BRANCH   1   2
HETATM    2  C2  UNL     1     -31.880   8.159   2.217  1.00 20.00    -0.090 C 
HETATM    3  C1  UNL     1     -31.028   8.720   3.092  1.00 20.00     0.014 C 
BRANCH   2   4
HETATM    4  C5  UNL     1     -32.813   9.035   1.407  1.00 20.00     0.029 C 
HETATM    5  C3  UNL     1     -32.207   9.477   0.083  1.00 20.00     0.010 C 
ENDBRANCH   2   4
ENDBRANCH   1   2
BRANCH   1   6
HETATM    6  C7  UNL     1     -33.378   6.030   2.297  1.00 20.00     0.009 C 
BRANCH   6   7
HETATM    7  C9  UNL     1     -33.770   6.140   3.786  1.00 20.00    -0.004 C 
HETATM    8  C4  UNL     1     -34.387   7.500   4.127  1.00 20.00     0.011 C 
BRANCH   7   9
HETATM    9  C8  UNL     1     -34.689   4.983   4.217  1.00 20.00     0.119 C 
HETATM   10 CL10 UNL     1     -33.843   3.426   4.396  1.00 20.00    -0.130 Cl
ENDBRANCH   7   9
ENDBRANCH   6   7
ENDBRANCH   1   6
TORSDOF 5
