REMARK  4 active torsions:
REMARK  status: ('A' for Active; 'I' for Inactive)
REMARK    1  A    between atoms: C3_3  and  C5_5 
REMARK    2  A    between atoms: C3_3  and  C6_6 
REMARK    3  A    between atoms: C5_5  and  C7_7 
REMARK    4  A    between atoms: C7_7  and  O8_8 
ROOT
HETATM    1  C1  UNL     1     -33.487   6.365   1.148  1.00 20.00     0.011 A 
HETATM    2  C2  UNL     1     -32.872   5.441   2.160  1.00 20.00     0.011 A 
HETATM    3  C3  UNL     1     -32.751   6.937   2.337  1.00 20.00    -0.026 A 
ENDROOT
BRANCH   3   4
HETATM    4  C5  UNL     1     -31.407   7.568   2.098  1.00 20.00     0.037 C 
BRANCH   4   5
HETATM    5  C7  UNL     1     -31.522   9.007   1.601  1.00 20.00     0.167 C 
BRANCH   5   6
HETATM    6  O8  UNL     1     -32.252   9.027   0.382  1.00 20.00    -0.396 OA
HETATM    7  C4  UNL     1     -32.371  10.347  -0.133  1.00 20.00     0.201 C 
ENDBRANCH   5   6
ENDBRANCH   4   5
ENDBRANCH   3   4
BRANCH   3   8
HETATM    8  C6  UNL     1     -33.563   7.586   3.424  1.00 20.00     0.124 C 
HETATM    9 CL9  UNL     1     -35.059   6.670   3.728  1.00 20.00    -0.130 Cl
ENDBRANCH   3   8
TORSDOF 4
