REMARK  3 active torsions:
REMARK  status: ('A' for Active; 'I' for Inactive)
REMARK    1  A    between atoms: C1_1  and  C6_6 
REMARK    2  A    between atoms: C5_5  and  C6_6 
REMARK    3  A    between atoms: C6_6  and  O8_8 
ROOT
HETATM    1  C4  UNL     1     -32.314   7.796   1.915  1.00 20.00     0.054 C 
HETATM    2  C6  UNL     1     -33.300   6.649   2.145  1.00 20.00     0.110 C 
ENDROOT
BRANCH   2   3
HETATM    3  C1  UNL     1     -32.748   5.394   1.483  1.00 20.00     0.268 C 
HETATM    4  O7  UNL     1     -31.552   5.155   1.345  1.00 20.00    -0.304 OA
ENDBRANCH   2   3
BRANCH   2   5
HETATM    5  C5  UNL     1     -33.613   6.417   3.646  1.00 20.00     0.018 C 
HETATM    6  C2  UNL     1     -34.624   5.298   3.914  1.00 20.00     0.013 C 
HETATM    7  C3  UNL     1     -34.075   7.702   4.351  1.00 20.00     0.013 C 
ENDBRANCH   2   5
BRANCH   2   8
HETATM    8  O8  UNL     1     -34.521   6.982   1.487  1.00 20.00    -0.383 OA
HETATM    9  H20 UNL     1     -34.300   7.134   0.556  1.00 20.00     0.211 HD
ENDBRANCH   2   8
TORSDOF 3
