REMARK  3 active torsions:
REMARK  status: ('A' for Active; 'I' for Inactive)
REMARK    1  A    between atoms: C2_2  and  C9_9 
REMARK    2  A    between atoms: C2_2  and  C10_10 
REMARK    3  A    between atoms: C6_6  and  C9_9 
ROOT
HETATM    1  C3  UNL     1     -35.018   6.265   3.854  1.00 20.00     0.006 C 
HETATM    2  C4  UNL     1     -34.935   4.940   4.619  1.00 20.00     0.020 C 
HETATM    3  C5  UNL     1     -32.805   5.297   3.606  1.00 20.00     0.025 C 
HETATM    4  C6  UNL     1     -33.734   6.359   3.016  1.00 20.00    -0.009 C 
HETATM    5  C7  UNL     1     -33.778   4.188   3.974  1.00 20.00     0.082 C 
HETATM    6 CL11 UNL     1     -33.059   2.994   5.064  1.00 20.00    -0.125 Cl
ENDROOT
BRANCH   4   7
HETATM    7  C9  UNL     1     -33.120   7.749   3.010  1.00 20.00     0.038 C 
BRANCH   7   8
HETATM    8  C2  UNL     1     -32.161   7.966   1.862  1.00 20.00    -0.089 C 
HETATM    9  C1  UNL     1     -31.081   7.182   1.710  1.00 20.00     0.014 C 
BRANCH   8  10
HETATM   10  C10 UNL     1     -32.447   9.087   0.889  1.00 20.00     0.029 C 
HETATM   11  C8  UNL     1     -31.809  10.407   1.298  1.00 20.00     0.010 C 
ENDBRANCH   8  10
ENDBRANCH   7   8
ENDBRANCH   4   7
TORSDOF 3
