REMARK  3 active torsions:
REMARK  status: ('A' for Active; 'I' for Inactive)
REMARK    1  A    between atoms: C5_5  and  C6_6 
REMARK    2  A    between atoms: C5_5  and  C7_7 
REMARK    3  A    between atoms: C6_6  and  O9_9 
ROOT
HETATM    1  C1  UNL     1     -32.379   6.338   1.519  1.00 20.00     0.091 C 
HETATM    2  C6  UNL     1     -32.596   7.728   1.941  1.00 20.00     0.227 C 
HETATM    3  N8  UNL     1     -32.206   5.239   1.186  1.00 20.00    -0.195 NA
ENDROOT
BRANCH   2   4
HETATM    4  C5  UNL     1     -34.016   7.964   2.470  1.00 20.00     0.050 C 
BRANCH   4   5
HETATM    5  C7  UNL     1     -34.287   7.450   3.898  1.00 20.00    -0.019 C 
HETATM    6  C2  UNL     1     -34.054   5.937   3.955  1.00 20.00     0.009 C 
HETATM    7  C3  UNL     1     -33.413   8.145   4.943  1.00 20.00     0.009 C 
ENDBRANCH   4   5
ENDBRANCH   2   4
BRANCH   2   8
HETATM    8  O9  UNL     1     -32.378   8.597   0.829  1.00 20.00    -0.376 OA
HETATM    9  C4  UNL     1     -30.994   8.827   0.619  1.00 20.00     0.203 C 
ENDBRANCH   2   8
TORSDOF 3
