REMARK  3 active torsions:
REMARK  status: ('A' for Active; 'I' for Inactive)
REMARK    1  A    between atoms: C6_6  and  C8_8 
REMARK    2  A    between atoms: C7_7  and  C8_8 
REMARK    3  A    between atoms: C7_7  and  C9_9 
ROOT
HETATM    1  C8  UNL     1     -32.233   8.111   2.762  1.00 20.00     0.042 C 
ENDROOT
BRANCH   1   2
HETATM    2  C6  UNL     1     -33.637   7.624   3.066  1.00 20.00     0.122 C 
HETATM    3  C2  UNL     1     -34.090   7.927   4.483  1.00 20.00     0.034 C 
HETATM    4  C1  UNL     1     -35.117   6.846   4.708  1.00 20.00     0.029 C 
HETATM    5  C5  UNL     1     -34.488   5.665   3.999  1.00 20.00     0.168 C 
HETATM    6  O10 UNL     1     -33.700   6.195   2.922  1.00 20.00    -0.386 OA
ENDBRANCH   1   2
BRANCH   1   7
HETATM    7  C7  UNL     1     -31.979   8.212   1.289  1.00 20.00    -0.025 A 
HETATM    8  C3  UNL     1     -32.832   9.167   0.487  1.00 20.00     0.011 A 
HETATM    9  C4  UNL     1     -31.392   9.499   0.758  1.00 20.00     0.011 A 
BRANCH   7  10
HETATM   10  C9  UNL     1     -31.559   6.923   0.638  1.00 20.00     0.124 C 
HETATM   11 CL11 UNL     1     -32.979   5.952   0.182  1.00 20.00    -0.130 Cl
ENDBRANCH   7  10
ENDBRANCH   1   7
TORSDOF 3
