REMARK  5 active torsions:
REMARK  status: ('A' for Active; 'I' for Inactive)
REMARK    1  A    between atoms: C5_5  and  C6_6 
REMARK    2  A    between atoms: C6_6  and  C9_9 
REMARK    3  A    between atoms: C7_7  and  O11_11 
REMARK    4  A    between atoms: C8_8  and  C9_9 
REMARK    5  A    between atoms: C8_8  and  O11_11 
ROOT
HETATM    1  C1  UNL     1     -32.362   6.437   1.912  1.00 20.00     0.091 C 
HETATM    2  C8  UNL     1     -32.346   7.731   2.611  1.00 20.00     0.231 C 
HETATM    3  N10 UNL     1     -32.371   5.416   1.361  1.00 20.00    -0.195 NA
ENDROOT
BRANCH   2   4
HETATM    4  C9  UNL     1     -33.000   7.675   4.010  1.00 20.00     0.024 C 
HETATM    5  C4  UNL     1     -32.482   8.780   4.945  1.00 20.00     0.014 C 
BRANCH   4   6
HETATM    6  C6  UNL     1     -34.544   7.708   3.980  1.00 20.00     0.007 C 
BRANCH   6   7
HETATM    7  C5  UNL     1     -35.176   6.431   3.421  1.00 20.00    -0.004 C 
HETATM    8  C2  UNL     1     -34.868   5.229   4.301  1.00 20.00     0.005 C 
ENDBRANCH   6   7
ENDBRANCH   4   6
ENDBRANCH   2   4
BRANCH   2   9
HETATM    9  O11 UNL     1     -33.031   8.708   1.827  1.00 20.00    -0.372 OA
BRANCH   9  10
HETATM   10  C7  UNL     1     -32.203   9.208   0.789  1.00 20.00     0.165 C 
HETATM   11  C3  UNL     1     -32.977  10.237  -0.007  1.00 20.00     0.033 C 
ENDBRANCH   9  10
ENDBRANCH   2   9
TORSDOF 5
