REMARK  4 active torsions:
REMARK  status: ('A' for Active; 'I' for Inactive)
REMARK    1  A    between atoms: C2_2  and  C7_7 
REMARK    2  A    between atoms: C2_2  and  C8_8 
REMARK    3  A    between atoms: C3_3  and  C9_9 
REMARK    4  A    between atoms: C8_8  and  C9_9 
ROOT
HETATM    1  C8  UNL     1     -32.124   8.194   1.730  1.00 20.00     0.045 C 
ENDROOT
BRANCH   1   2
HETATM    2  C2  UNL     1     -31.803   8.698   0.336  1.00 20.00    -0.089 C 
HETATM    3  C1  UNL     1     -31.053   7.965  -0.503  1.00 20.00     0.014 C 
BRANCH   2   4
HETATM    4  C7  UNL     1     -32.349  10.042  -0.092  1.00 20.00     0.029 C 
HETATM    5  C5  UNL     1     -33.174  10.725   0.989  1.00 20.00     0.010 C 
ENDBRANCH   2   4
ENDBRANCH   1   2
BRANCH   1   6
HETATM    6  C9  UNL     1     -33.375   7.301   1.807  1.00 20.00     0.055 C 
HETATM    7  C6  UNL     1     -33.059   5.882   1.341  1.00 20.00     0.018 C 
BRANCH   6   8
HETATM    8  C3  UNL     1     -33.932   7.232   3.226  1.00 20.00     0.127 C 
HETATM    9  C4  UNL     1     -35.156   6.377   3.432  1.00 20.00     0.091 C 
HETATM   10  O10 UNL     1     -33.397   7.812   4.171  1.00 20.00    -0.298 OA
ENDBRANCH   6   8
ENDBRANCH   1   6
TORSDOF 4
