REMARK  1 active torsions:
REMARK  status: ('A' for Active; 'I' for Inactive)
REMARK    1  A    between atoms: C6_6  and  O9_9 
ROOT
HETATM    1  C1  UNL     1     -33.476   7.126   3.166  1.00 20.00     0.098 C 
HETATM    2  C2  UNL     1     -32.042   9.276   0.483  1.00 20.00     0.004 C 
HETATM    3  C3  UNL     1     -30.903   9.243   1.503  1.00 20.00     0.004 C 
HETATM    4  C4  UNL     1     -33.212   8.540   1.132  1.00 20.00     0.053 C 
HETATM    5  C5  UNL     1     -31.421   8.444   2.699  1.00 20.00     0.053 C 
HETATM    6  C6  UNL     1     -32.552   7.591   2.130  1.00 20.00     0.148 C 
HETATM    7  N8  UNL     1     -34.208   6.757   3.987  1.00 20.00    -0.194 NA
ENDROOT
BRANCH   6   8
HETATM    8  O9  UNL     1     -31.989   6.476   1.444  1.00 20.00    -0.370 OA
HETATM    9  C7  UNL     1     -32.956   5.458   1.217  1.00 20.00     0.204 C 
ENDBRANCH   6   8
TORSDOF 1
