REMARK  3 active torsions:
REMARK  status: ('A' for Active; 'I' for Inactive)
REMARK    1  A    between atoms: C6_6  and  C7_7 
REMARK    2  A    between atoms: C6_6  and  C8_8 
REMARK    3  A    between atoms: C8_8  and  O10_10 
ROOT
HETATM    1  C1  UNL     1     -32.826   6.017   1.565  1.00 20.00     0.097 C 
HETATM    2  C4  UNL     1     -32.048   7.755   3.118  1.00 20.00     0.062 C 
HETATM    3  C8  UNL     1     -33.197   7.285   2.217  1.00 20.00     0.144 C 
HETATM    4  N9  UNL     1     -32.532   5.020   1.049  1.00 20.00    -0.194 NA
ENDROOT
BRANCH   3   5
HETATM    5  C6  UNL     1     -33.521   8.384   1.181  1.00 20.00     0.057 C 
BRANCH   5   6
HETATM    6  C7  UNL     1     -32.328   9.154   0.562  1.00 20.00    -0.019 C 
HETATM    7  C2  UNL     1     -31.410   8.163  -0.163  1.00 20.00     0.009 C 
HETATM    8  C3  UNL     1     -32.745  10.259  -0.407  1.00 20.00     0.009 C 
ENDBRANCH   5   6
ENDBRANCH   3   5
BRANCH   3   9
HETATM    9  O10 UNL     1     -34.335   7.083   3.055  1.00 20.00    -0.371 OA
HETATM   10  C5  UNL     1     -34.253   5.847   3.748  1.00 20.00     0.204 C 
ENDBRANCH   3   9
TORSDOF 3
