REMARK  4 active torsions:
REMARK  status: ('A' for Active; 'I' for Inactive)
REMARK    1  A    between atoms: C2_2  and  C9_9 
REMARK    2  A    between atoms: C2_2  and  C10_10 
REMARK    3  A    between atoms: C3_3  and  C5_5 
REMARK    4  A    between atoms: C3_3  and  C9_9 
ROOT
HETATM    1  C3  UNL     1     -32.646   7.387   2.411  1.00 20.00     0.135 C 
HETATM    2  O11 UNL     1     -32.715   7.876   3.532  1.00 20.00    -0.297 OA
ENDROOT
BRANCH   1   3
HETATM    3  C5  UNL     1     -31.962   8.135   1.316  1.00 20.00     0.060 A 
HETATM    4  C4  UNL     1     -31.238   9.395   1.659  1.00 20.00     0.017 A 
HETATM    5  C6  UNL     1     -32.534   9.460   0.896  1.00 20.00    -0.007 A 
HETATM    6  C7  UNL     1     -32.538   9.833  -0.547  1.00 20.00     0.011 C 
ENDBRANCH   1   3
BRANCH   1   7
HETATM    7  C9  UNL     1     -33.249   6.054   2.007  1.00 20.00     0.111 C 
BRANCH   7   8
HETATM    8  C2  UNL     1     -33.874   5.355   3.186  1.00 20.00    -0.083 C 
HETATM    9  C1  UNL     1     -34.873   5.924   3.881  1.00 20.00     0.014 C 
BRANCH   8  10
HETATM   10  C10 UNL     1     -33.335   3.995   3.565  1.00 20.00     0.029 C 
HETATM   11  C8  UNL     1     -34.044   3.398   4.773  1.00 20.00     0.010 C 
ENDBRANCH   8  10
ENDBRANCH   7   8
ENDBRANCH   1   7
TORSDOF 4
