REMARK  3 active torsions:
REMARK  status: ('A' for Active; 'I' for Inactive)
REMARK    1  A    between atoms: C5_5  and  C8_8 
REMARK    2  A    between atoms: C5_5  and  C9_9 
REMARK    3  A    between atoms: C8_8  and  C10_10 
ROOT
HETATM    1  C1  UNL     1     -33.453   8.263   4.196  1.00 20.00     0.001 C 
HETATM    2  C2  UNL     1     -34.561   7.262   3.869  1.00 20.00     0.001 C 
HETATM    3  C3  UNL     1     -32.269   7.892   3.307  1.00 20.00     0.010 C 
HETATM    4  C4  UNL     1     -33.994   6.334   2.798  1.00 20.00     0.010 C 
HETATM    5  C5  UNL     1     -32.883   7.143   2.116  1.00 20.00    -0.028 C 
ENDROOT
BRANCH   5   6
HETATM    6  C8  UNL     1     -33.460   8.121   1.079  1.00 20.00     0.014 C 
BRANCH   6   7
HETATM    7  C10 UNL     1     -32.623   9.398   0.917  1.00 20.00    -0.022 C 
HETATM    8  C6  UNL     1     -31.192   9.107   0.464  1.00 20.00     0.009 C 
HETATM    9  C7  UNL     1     -33.303  10.333  -0.086  1.00 20.00     0.009 C 
ENDBRANCH   6   7
ENDBRANCH   5   6
BRANCH   5  10
HETATM   10  C9  UNL     1     -31.859   6.233   1.435  1.00 20.00     0.124 C 
HETATM   11 CL11 UNL     1     -32.695   4.991   0.492  1.00 20.00    -0.130 Cl
ENDBRANCH   5  10
TORSDOF 3
