REMARK  5 active torsions:
REMARK  status: ('A' for Active; 'I' for Inactive)
REMARK    1  A    between atoms: C4_4  and  C5_5 
REMARK    2  A    between atoms: C4_4  and  C8_8 
REMARK    3  A    between atoms: C5_5  and  O9_9 
REMARK    4  A    between atoms: C6_6  and  C8_8 
REMARK    5  A    between atoms: C7_7  and  C8_8 
ROOT
HETATM    1  C8  UNL     1     -33.377   7.060   2.444  1.00 20.00     0.005 C 
ENDROOT
BRANCH   1   2
HETATM    2  C4  UNL     1     -32.096   7.931   2.485  1.00 20.00     0.032 C 
BRANCH   2   3
HETATM    3  C5  UNL     1     -31.519   8.283   1.117  1.00 20.00     0.167 C 
BRANCH   3   4
HETATM    4  O9  UNL     1     -32.505   8.990   0.375  1.00 20.00    -0.396 OA
HETATM    5  C3  UNL     1     -32.574  10.353   0.769  1.00 20.00     0.201 C 
ENDBRANCH   3   4
ENDBRANCH   2   3
ENDBRANCH   1   2
BRANCH   1   6
HETATM    6  C6  UNL     1     -33.174   5.750   1.653  1.00 20.00     0.119 C 
HETATM    7 CL10 UNL     1     -33.312   5.964  -0.109  1.00 20.00    -0.130 Cl
ENDBRANCH   1   6
BRANCH   1   8
HETATM    8  C7  UNL     1     -33.951   6.826   3.882  1.00 20.00    -0.017 C 
HETATM    9  C1  UNL     1     -34.231   8.144   4.619  1.00 20.00     0.010 C 
HETATM   10  C2  UNL     1     -35.244   6.000   3.870  1.00 20.00     0.010 C 
ENDBRANCH   1   8
TORSDOF 5
