REMARK  5 active torsions:
REMARK  status: ('A' for Active; 'I' for Inactive)
REMARK    1  A    between atoms: C4_4  and  C7_7 
REMARK    2  A    between atoms: C4_4  and  C8_8 
REMARK    3  A    between atoms: C6_6  and  C9_9 
REMARK    4  A    between atoms: C8_8  and  N10_10 
REMARK    5  A    between atoms: C9_9  and  N10_10 
ROOT
HETATM    1  C1  UNL     1     -33.959   3.541   4.192  1.00 20.00     0.012 C 
HETATM    2  C2  UNL     1     -34.611   4.549   4.164  1.00 20.00    -0.116 C 
HETATM    3  C6  UNL     1     -35.413   5.781   4.132  1.00 20.00     0.123 C 
ENDROOT
BRANCH   3   4
HETATM    4  C9  UNL     1     -34.542   7.026   3.992  1.00 20.00     0.282 C 
BRANCH   4   5
HETATM    5  N10 UNL     1     -33.735   6.961   2.782  1.00 20.00     0.088 N 
HETATM    6  H25 UNL     1     -34.347   6.895   1.971  1.00 20.00     0.316 HD
BRANCH   5   7
HETATM    7  C8  UNL     1     -32.898   8.150   2.652  1.00 20.00     0.302 C 
BRANCH   7   8
HETATM    8  C4  UNL     1     -32.032   8.125   1.415  1.00 20.00    -0.062 C 
HETATM    9  C3  UNL     1     -31.580   6.964   0.915  1.00 20.00     0.016 C 
BRANCH   8  10
HETATM   10  C7  UNL     1     -31.686   9.441   0.752  1.00 20.00     0.030 C 
HETATM   11  C5  UNL     1     -32.699   9.853  -0.308  1.00 20.00     0.010 C 
ENDBRANCH   8  10
ENDBRANCH   7   8
ENDBRANCH   5   7
ENDBRANCH   4   5
ENDBRANCH   3   4
TORSDOF 5
