REMARK  4 active torsions:
REMARK  status: ('A' for Active; 'I' for Inactive)
REMARK    1  A    between atoms: C4_4  and  C7_7 
REMARK    2  A    between atoms: C4_4  and  C8_8 
REMARK    3  A    between atoms: C7_7  and  C9_9 
REMARK    4  A    between atoms: C9_9  and  C10_10 
ROOT
HETATM    1  C1  UNL     1     -31.797   5.170   1.622  1.00 20.00     0.002 C 
HETATM    2  C2  UNL     1     -31.841   6.044   2.890  1.00 20.00     0.010 C 
HETATM    3  C3  UNL     1     -33.165   5.760   1.229  1.00 20.00     0.010 C 
HETATM    4  C4  UNL     1     -32.857   6.970   2.160  1.00 20.00    -0.028 C 
ENDROOT
BRANCH   4   5
HETATM    5  C7  UNL     1     -32.219   8.163   1.447  1.00 20.00     0.011 C 
BRANCH   5   6
HETATM    6  C9  UNL     1     -33.134   8.711   0.350  1.00 20.00     0.005 C 
BRANCH   6   7
HETATM    7  C10 UNL     1     -32.569   9.960  -0.353  1.00 20.00    -0.023 C 
HETATM    8  C5  UNL     1     -31.226   9.624  -1.007  1.00 20.00     0.009 C 
HETATM    9  C6  UNL     1     -32.395  11.140   0.604  1.00 20.00     0.009 C 
ENDBRANCH   6   7
ENDBRANCH   5   6
ENDBRANCH   4   5
BRANCH   4  10
HETATM   10  C8  UNL     1     -34.036   7.403   3.026  1.00 20.00     0.124 C 
HETATM   11 CL11 UNL     1     -34.591   6.045   4.019  1.00 20.00    -0.130 Cl
ENDBRANCH   4  10
TORSDOF 4
