REMARK  2 active torsions:
REMARK  status: ('A' for Active; 'I' for Inactive)
REMARK    1  A    between atoms: C6_6  and  O10_10 
REMARK    2  A    between atoms: C8_8  and  O10_10 
ROOT
HETATM    1  C1  UNL     1     -33.391   7.522   4.496  1.00 20.00     0.098 C 
HETATM    2  C2  UNL     1     -34.002   4.506   4.114  1.00 20.00     0.004 C 
HETATM    3  C3  UNL     1     -35.374   5.147   4.331  1.00 20.00     0.004 C 
HETATM    4  C4  UNL     1     -33.250   5.429   3.157  1.00 20.00     0.053 C 
HETATM    5  C5  UNL     1     -35.382   6.425   3.495  1.00 20.00     0.053 C 
HETATM    6  C6  UNL     1     -33.910   6.795   3.327  1.00 20.00     0.148 C 
HETATM    7  N9  UNL     1     -32.982   8.095   5.418  1.00 20.00    -0.194 NA
ENDROOT
BRANCH   6   8
HETATM    8  O10 UNL     1     -33.741   7.585   2.161  1.00 20.00    -0.366 OA
BRANCH   8   9
HETATM    9  C8  UNL     1     -32.371   7.888   1.926  1.00 20.00     0.165 C 
HETATM   10  C7  UNL     1     -32.259   8.729   0.673  1.00 20.00     0.033 C 
ENDBRANCH   8   9
ENDBRANCH   6   8
TORSDOF 2
