REMARK  4 active torsions:
REMARK  status: ('A' for Active; 'I' for Inactive)
REMARK    1  A    between atoms: C2_2  and  C9_9 
REMARK    2  A    between atoms: C2_2  and  C10_10 
REMARK    3  A    between atoms: C3_3  and  C5_5 
REMARK    4  A    between atoms: C3_3  and  C9_9 
ROOT
HETATM    1  C3  UNL     1     -33.694   7.544   3.624  1.00 20.00     0.135 C 
HETATM    2  O11 UNL     1     -32.675   7.702   4.284  1.00 20.00    -0.297 OA
ENDROOT
BRANCH   1   3
HETATM    3  C5  UNL     1     -34.907   6.952   4.261  1.00 20.00     0.060 A 
HETATM    4  C4  UNL     1     -35.900   6.248   3.392  1.00 20.00     0.017 A 
HETATM    5  C6  UNL     1     -35.055   5.465   4.356  1.00 20.00    -0.007 A 
HETATM    6  C7  UNL     1     -34.028   4.513   3.846  1.00 20.00     0.011 C 
ENDBRANCH   1   3
BRANCH   1   7
HETATM    7  C9  UNL     1     -33.833   7.875   2.150  1.00 20.00     0.111 C 
BRANCH   7   8
HETATM    8  C2  UNL     1     -32.578   8.510   1.610  1.00 20.00    -0.083 C 
HETATM    9  C1  UNL     1     -31.401   7.864   1.650  1.00 20.00     0.014 C 
BRANCH   8  10
HETATM   10  C10 UNL     1     -32.687   9.900   1.026  1.00 20.00     0.029 C 
HETATM   11  C8  UNL     1     -32.988   9.888  -0.466  1.00 20.00     0.010 C 
ENDBRANCH   8  10
ENDBRANCH   7   8
ENDBRANCH   1   7
TORSDOF 4
