REMARK  1 active torsions:
REMARK  status: ('A' for Active; 'I' for Inactive)
REMARK    1  A    between atoms: C3_3  and  C8_8 
ROOT
HETATM    1  C1  UNL     1     -34.043   6.330   3.181  1.00 20.00     0.218 C 
HETATM    2  C2  UNL     1     -33.843   7.599   2.389  1.00 20.00     0.109 C 
HETATM    3  C3  UNL     1     -32.526   7.340   1.646  1.00 20.00     0.021 C 
HETATM    4  C4  UNL     1     -32.522   5.809   1.431  1.00 20.00     0.029 C 
HETATM    5  C5  UNL     1     -31.099   5.248   1.417  1.00 20.00     0.038 C 
HETATM    6  C6  UNL     1     -33.271   5.354   0.172  1.00 20.00     0.038 C 
HETATM    7  N9  UNL     1     -33.242   5.350   2.606  1.00 20.00    -0.352 N 
HETATM    8  O10 UNL     1     -34.804   6.200   4.127  1.00 20.00    -0.274 OA
HETATM    9  H25 UNL     1     -33.167   4.405   2.972  1.00 20.00     0.163 HD
ENDROOT
BRANCH   3  10
HETATM   10  C8  UNL     1     -32.385   8.198   0.397  1.00 20.00     0.003 C 
HETATM   11  C7  UNL     1     -32.460   9.658   0.712  1.00 20.00     0.005 C 
ENDBRANCH   3  10
TORSDOF 1
