REMARK  1 active torsions:
REMARK  status: ('A' for Active; 'I' for Inactive)
REMARK    1  A    between atoms: C3_3  and  C8_8 
ROOT
HETATM    1  C1  UNL     1     -33.778   4.811   3.667  1.00 20.00     0.218 C 
HETATM    2  C2  UNL     1     -34.580   6.050   3.977  1.00 20.00     0.109 C 
HETATM    3  C3  UNL     1     -33.837   7.166   3.219  1.00 20.00     0.021 C 
HETATM    4  C4  UNL     1     -33.212   6.419   2.014  1.00 20.00     0.029 C 
HETATM    5  C5  UNL     1     -31.901   7.011   1.494  1.00 20.00     0.038 C 
HETATM    6  C6  UNL     1     -34.220   6.337   0.854  1.00 20.00     0.038 C 
HETATM    7  N9  UNL     1     -32.996   5.089   2.552  1.00 20.00    -0.352 N 
HETATM    8  O10 UNL     1     -33.847   3.754   4.276  1.00 20.00    -0.274 OA
HETATM    9  H25 UNL     1     -32.339   4.425   2.153  1.00 20.00     0.163 HD
ENDROOT
BRANCH   3  10
HETATM   10  C8  UNL     1     -32.832   7.851   4.150  1.00 20.00     0.003 C 
HETATM   11  C7  UNL     1     -33.499   8.447   5.348  1.00 20.00     0.005 C 
ENDBRANCH   3  10
TORSDOF 1
