REMARK  1 active torsions:
REMARK  status: ('A' for Active; 'I' for Inactive)
REMARK    1  A    between atoms: C5_5  and  C6_6 
ROOT
HETATM    1  C1  UNL     1     -33.901   7.082   3.352  1.00 20.00     0.218 C 
HETATM    2  C2  UNL     1     -32.797   8.091   3.153  1.00 20.00     0.110 C 
HETATM    3  C5  UNL     1     -32.433   7.945   1.663  1.00 20.00     0.026 C 
HETATM    4  C7  UNL     1     -32.762   6.461   1.363  1.00 20.00     0.030 C 
HETATM    5  C8  UNL     1     -31.562   5.564   1.719  1.00 20.00     0.038 C 
HETATM    6  C9  UNL     1     -33.191   6.171  -0.076  1.00 20.00     0.038 C 
HETATM    7  N10 UNL     1     -33.848   6.192   2.287  1.00 20.00    -0.352 N 
HETATM    8  O11 UNL     1     -34.664   7.050   4.305  1.00 20.00    -0.274 OA
HETATM    9  H26 UNL     1     -34.505   5.426   2.167  1.00 20.00     0.163 HD
ENDROOT
BRANCH   3  10
HETATM   10  C6  UNL     1     -33.216   8.965   0.831  1.00 20.00    -0.008 A 
HETATM   11  C3  UNL     1     -32.696  10.362   0.675  1.00 20.00     0.005 A 
HETATM   12  C4  UNL     1     -32.681   9.417  -0.494  1.00 20.00     0.005 A 
ENDBRANCH   3  10
TORSDOF 1
