REMARK  2 active torsions:
REMARK  status: ('A' for Active; 'I' for Inactive)
REMARK    1  A    between atoms: C4_4  and  C7_7 
REMARK    2  A    between atoms: C7_7  and  C8_8 
ROOT
HETATM    1  C1  UNL     1     -34.465   4.415   4.349  1.00 20.00     0.218 C 
HETATM    2  C2  UNL     1     -33.549   5.127   3.382  1.00 20.00     0.113 C 
HETATM    3  C3  UNL     1     -35.642   6.297   3.561  1.00 20.00     0.132 C 
HETATM    4  C4  UNL     1     -34.157   6.540   3.272  1.00 20.00    -0.020 C 
HETATM    5  C5  UNL     1     -33.545   7.473   4.330  1.00 20.00     0.017 C 
HETATM    6  N9  UNL     1     -35.646   5.140   4.414  1.00 20.00    -0.360 N 
HETATM    7  O10 UNL     1     -34.205   3.371   4.928  1.00 20.00    -0.274 OA
HETATM    8  H25 UNL     1     -36.432   4.881   5.002  1.00 20.00     0.162 HD
ENDROOT
BRANCH   4   9
HETATM    9  C7  UNL     1     -33.945   7.136   1.880  1.00 20.00     0.011 C 
BRANCH   9  10
HETATM   10  C8  UNL     1     -32.463   7.280   1.572  1.00 20.00    -0.004 C 
HETATM   11  C6  UNL     1     -32.252   7.852   0.179  1.00 20.00     0.005 C 
ENDBRANCH   9  10
ENDBRANCH   4   9
TORSDOF 2
