REMARK  1 active torsions:
REMARK  status: ('A' for Active; 'I' for Inactive)
REMARK    1  A    between atoms: C4_4  and  C8_8 
ROOT
HETATM    1  C1  UNL     1     -34.284   7.055   3.435  1.00 20.00     0.218 C 
HETATM    2  C2  UNL     1     -34.016   8.261   2.566  1.00 20.00     0.114 C 
HETATM    3  C3  UNL     1     -33.084   6.293   1.553  1.00 20.00     0.088 C 
HETATM    4  C4  UNL     1     -32.839   7.813   1.670  1.00 20.00    -0.016 C 
HETATM    5  C5  UNL     1     -31.869   5.427   1.258  1.00 20.00     0.033 C 
HETATM    6  C6  UNL     1     -31.505   8.170   2.352  1.00 20.00     0.018 C 
HETATM    7  N9  UNL     1     -33.695   5.958   2.816  1.00 20.00    -0.356 N 
HETATM    8  O10 UNL     1     -34.935   7.059   4.468  1.00 20.00    -0.274 OA
HETATM    9  H25 UNL     1     -33.696   5.023   3.211  1.00 20.00     0.162 HD
ENDROOT
BRANCH   4  10
HETATM   10  C8  UNL     1     -32.900   8.498   0.301  1.00 20.00     0.007 C 
HETATM   11  C7  UNL     1     -32.833   9.983   0.428  1.00 20.00     0.006 C 
ENDBRANCH   4  10
TORSDOF 1
