REMARK  0 active torsions:
REMARK  status: ('A' for Active; 'I' for Inactive)
ROOT
HETATM    1  C1  UNL     1     -32.687   8.483   3.163  1.00 20.00     0.010 A 
HETATM    2  C2  UNL     1     -33.539   7.629   3.867  1.00 20.00     0.019 A 
HETATM    3  C3  UNL     1     -33.497   6.011   2.050  1.00 20.00     0.026 A 
HETATM    4  C4  UNL     1     -32.246   8.085   1.911  1.00 20.00    -0.033 A 
HETATM    5  C5  UNL     1     -32.643   6.858   1.363  1.00 20.00    -0.049 A 
HETATM    6  C6  UNL     1     -33.942   6.403   3.314  1.00 20.00     0.011 A 
HETATM    7  C7  UNL     1     -32.066   6.671  -0.005  1.00 20.00     0.041 C 
HETATM    8  C8  UNL     1     -30.920   7.698   0.018  1.00 20.00     0.030 C 
HETATM    9  C9  UNL     1     -31.359   8.831   0.962  1.00 20.00     0.116 C 
HETATM   10 CL10 UNL     1     -32.291  10.071   0.097  1.00 20.00    -0.120 Cl
HETATM   11 BR11 UNL     1     -35.104   5.274   4.290  1.00 20.00    -0.051 Br
ENDROOT
TORSDOF 0
