REMARK  4 active torsions:
REMARK  status: ('A' for Active; 'I' for Inactive)
REMARK    1  A    between atoms: C5_5  and  C6_6 
REMARK    2  A    between atoms: C6_6  and  S10_10 
REMARK    3  A    between atoms: C7_7  and  C8_8 
REMARK    4  A    between atoms: C7_7  and  S10_10 
ROOT
HETATM    1  C1  UNL     1     -32.569   5.438   1.383  1.00 20.00     0.074 C 
HETATM    2  C7  UNL     1     -33.108   6.576   2.147  1.00 20.00     0.157 C 
HETATM    3  N9  UNL     1     -32.141   4.541   0.784  1.00 20.00    -0.196 NA
ENDROOT
BRANCH   2   4
HETATM    4  C8  UNL     1     -34.241   6.170   3.123  1.00 20.00     0.005 C 
HETATM    5  C3  UNL     1     -34.494   7.274   4.159  1.00 20.00     0.011 C 
HETATM    6  C4  UNL     1     -34.018   4.835   3.846  1.00 20.00     0.011 C 
ENDBRANCH   2   4
BRANCH   2   7
HETATM    7  S10 UNL     1     -33.634   7.916   1.013  1.00 20.00    -0.149 SA
BRANCH   7   8
HETATM    8  C6  UNL     1     -32.005   8.629   0.703  1.00 20.00     0.075 C 
BRANCH   8   9
HETATM    9  C5  UNL     1     -32.113   9.816  -0.247  1.00 20.00     0.006 C 
HETATM   10  C2  UNL     1     -33.006  10.903   0.334  1.00 20.00     0.006 C 
ENDBRANCH   8   9
ENDBRANCH   7   8
ENDBRANCH   2   7
TORSDOF 4
