REMARK  1 active torsions:
REMARK  status: ('A' for Active; 'I' for Inactive)
REMARK    1  A    between atoms: C3_3  and  C6_6 
ROOT
HETATM    1  C1  UNL     1     -34.115   7.354   3.505  1.00 20.00     0.131 A 
HETATM    2  C2  UNL     1     -35.223   5.606   4.230  1.00 20.00     0.166 A 
HETATM    3  C3  UNL     1     -33.603   6.411   2.639  1.00 20.00     0.005 A 
HETATM    4  N7  UNL     1     -35.044   6.895   4.418  1.00 20.00    -0.265 NA
HETATM    5  S8  UNL     1     -34.306   4.882   2.973  1.00 20.00    -0.085 SA
ENDROOT
BRANCH   3   6
HETATM    6  C6  UNL     1     -32.581   6.565   1.528  1.00 20.00     0.019 C 
HETATM    7  C4  UNL     1     -31.815   5.263   1.284  1.00 20.00     0.015 C 
HETATM    8  C5  UNL     1     -31.618   7.721   1.806  1.00 20.00     0.015 C 
ENDBRANCH   3   6
TORSDOF 1
