REMARK  0 active torsions:
REMARK  status: ('A' for Active; 'I' for Inactive)
ROOT
HETATM    1  C1  UNL     1     -34.166   5.978   3.445  1.00 20.00     0.125 C 
HETATM    2  C2  UNL     1     -33.597   7.941   1.924  1.00 20.00     0.074 A 
HETATM    3  C3  UNL     1     -31.575   7.157   1.402  1.00 20.00     0.167 A 
HETATM    4  C4  UNL     1     -33.372   6.745   2.564  1.00 20.00     0.156 A 
HETATM    5  C5  UNL     1     -32.430   8.209   1.169  1.00 20.00     0.059 A 
HETATM    6  N6  UNL     1     -34.818   5.348   4.170  1.00 20.00    -0.189 NA
HETATM    7  O7  UNL     1     -32.141   6.260   2.251  1.00 20.00    -0.310 OA
HETATM    8 CL8  UNL     1     -32.171   9.563   0.186  1.00 20.00    -0.082 Cl
ENDROOT
TORSDOF 0
