REMARK  1 active torsions:
REMARK  status: ('A' for Active; 'I' for Inactive)
REMARK    1  A    between atoms: C2_2  and  C6_6 
ROOT
HETATM    1  C1  UNL     1     -32.484   5.995   1.531  1.00 20.00     0.111 C 
HETATM    2  C2  UNL     1     -33.097   7.391   1.609  1.00 20.00     0.231 C 
HETATM    3  C3  UNL     1     -33.824   6.592   3.722  1.00 20.00     0.278 C 
HETATM    4  C4  UNL     1     -35.345   6.701   3.744  1.00 20.00     0.054 C 
HETATM    5  N7  UNL     1     -33.224   7.745   3.035  1.00 20.00     0.102 N 
HETATM    6  S8  UNL     1     -33.309   5.081   2.853  1.00 20.00    -0.132 SA
HETATM    7  H21 UNL     1     -32.285   7.884   3.412  1.00 20.00     0.317 HD
ENDROOT
BRANCH   2   8
HETATM    8  C6  UNL     1     -32.237   8.420   0.883  1.00 20.00     0.032 C 
HETATM    9  C5  UNL     1     -32.817   9.794   0.978  1.00 20.00     0.007 C 
ENDBRANCH   2   8
TORSDOF 1
