REMARK  0 active torsions:
REMARK  status: ('A' for Active; 'I' for Inactive)
ROOT
HETATM    1  C1  UNL     1     -32.357   8.995   0.690  1.00 20.00     0.080 C 
HETATM    2  C2  UNL     1     -33.165   6.115   1.617  1.00 20.00     0.013 C 
HETATM    3  C3  UNL     1     -31.780   6.750   1.576  1.00 20.00     0.036 C 
HETATM    4  C4  UNL     1     -33.798   6.553   2.925  1.00 20.00     0.076 C 
HETATM    5  C5  UNL     1     -31.951   8.242   1.890  1.00 20.00     0.093 C 
HETATM    6  C6  UNL     1     -30.673   8.841   2.475  1.00 20.00     0.043 C 
HETATM    7  N7  UNL     1     -32.676   9.589  -0.254  1.00 20.00    -0.196 NA
HETATM    8  S8  UNL     1     -33.291   8.281   3.142  1.00 20.00    -0.144 SA
ENDROOT
TORSDOF 0
