REMARK  1 active torsions:
REMARK  status: ('A' for Active; 'I' for Inactive)
REMARK    1  A    between atoms: C4_4  and  C5_5 
ROOT
HETATM    1  C3  UNL     1     -31.943   7.224   0.540  1.00 20.00     0.116 C 
HETATM    2  C5  UNL     1     -33.236   6.913   2.813  1.00 20.00     0.286 C 
HETATM    3  C6  UNL     1     -32.208   8.504   1.349  1.00 20.00     0.160 C 
HETATM    4  C7  UNL     1     -30.989   8.918   2.194  1.00 20.00     0.049 C 
HETATM    5  C8  UNL     1     -32.563   9.658   0.402  1.00 20.00     0.049 C 
HETATM    6  N9  UNL     1     -33.382   8.232   2.196  1.00 20.00     0.107 N 
HETATM    7  S10 UNL     1     -32.314   5.856   1.666  1.00 20.00    -0.131 SA
HETATM    8  H25 UNL     1     -34.208   8.219   1.595  1.00 20.00     0.318 HD
ENDROOT
BRANCH   2   9
HETATM    9  C4  UNL     1     -34.581   6.328   3.104  1.00 20.00     0.029 A 
HETATM   10  C1  UNL     1     -34.722   5.211   4.101  1.00 20.00     0.008 A 
HETATM   11  C2  UNL     1     -35.246   6.581   4.429  1.00 20.00     0.008 A 
ENDBRANCH   2   9
TORSDOF 1
