REMARK  2 active torsions:
REMARK  status: ('A' for Active; 'I' for Inactive)
REMARK    1  A    between atoms: C3_3  and  C7_7 
REMARK    2  A    between atoms: C7_7  and  C8_8 
ROOT
HETATM    1  C1  UNL     1     -33.432   7.818   4.530  1.00 20.00     0.111 C 
HETATM    2  C2  UNL     1     -34.202   6.958   3.530  1.00 20.00     0.227 C 
HETATM    3  C3  UNL     1     -32.498   7.725   2.066  1.00 20.00     0.282 C 
HETATM    4  C4  UNL     1     -34.825   5.741   4.204  1.00 20.00     0.043 C 
HETATM    5  N9  UNL     1     -33.254   6.534   2.483  1.00 20.00     0.102 N 
HETATM    6  S10 UNL     1     -32.361   8.840   3.495  1.00 20.00    -0.132 SA
HETATM    7  H27 UNL     1     -32.597   5.872   2.899  1.00 20.00     0.317 HD
ENDROOT
BRANCH   3   8
HETATM    8  C7  UNL     1     -33.189   8.431   0.904  1.00 20.00     0.050 C 
BRANCH   8   9
HETATM    9  C8  UNL     1     -32.450   9.692   0.428  1.00 20.00    -0.020 C 
HETATM   10  C5  UNL     1     -31.030   9.391  -0.053  1.00 20.00     0.009 C 
HETATM   11  C6  UNL     1     -33.245  10.364  -0.694  1.00 20.00     0.009 C 
ENDBRANCH   8   9
ENDBRANCH   3   8
TORSDOF 2
