REMARK  1 active torsions:
REMARK  status: ('A' for Active; 'I' for Inactive)
REMARK    1  A    between atoms: C2_2  and  C8_8 
ROOT
HETATM    1  C1  UNL     1     -33.994   7.095   4.374  1.00 20.00     0.284 C 
HETATM    2  C2  UNL     1     -33.069   6.827   2.086  1.00 20.00     0.233 C 
HETATM    3  C3  UNL     1     -35.056   6.030   4.099  1.00 20.00     0.071 C 
HETATM    4  C4  UNL     1     -32.819   5.366   2.520  1.00 20.00     0.076 C 
HETATM    5  C5  UNL     1     -36.280   6.576   3.366  1.00 20.00     0.023 C 
HETATM    6  C6  UNL     1     -32.345   4.463   1.379  1.00 20.00     0.023 C 
HETATM    7  N9  UNL     1     -33.429   7.731   3.189  1.00 20.00     0.090 N 
HETATM    8  S10 UNL     1     -34.360   4.611   3.184  1.00 20.00    -0.156 SA
HETATM    9  H27 UNL     1     -34.108   8.430   2.842  1.00 20.00     0.316 HD
ENDROOT
BRANCH   2  10
HETATM   10  C8  UNL     1     -31.862   7.440   1.361  1.00 20.00     0.032 C 
HETATM   11  C7  UNL     1     -32.143   8.837   0.922  1.00 20.00     0.007 C 
ENDBRANCH   2  10
TORSDOF 1
