REMARK  1 active torsions:
REMARK  status: ('A' for Active; 'I' for Inactive)
REMARK    1  A    between atoms: C3_3  and  C7_7 
ROOT
HETATM    1  C1  UNL     1     -33.527   6.274   2.175  1.00 20.00     0.284 C 
HETATM    2  C2  UNL     1     -32.523   8.884   3.249  1.00 20.00     0.109 C 
HETATM    3  C3  UNL     1     -32.114   8.277   1.901  1.00 20.00     0.229 C 
HETATM    4  C4  UNL     1     -34.051   6.633   3.569  1.00 20.00     0.071 C 
HETATM    5  C5  UNL     1     -35.413   5.992   3.823  1.00 20.00     0.023 C 
HETATM    6  N8  UNL     1     -32.195   6.812   1.896  1.00 20.00     0.089 N 
HETATM    7  S9  UNL     1     -34.209   8.441   3.754  1.00 20.00    -0.161 SA
HETATM    8  H24 UNL     1     -31.538   6.438   2.596  1.00 20.00     0.316 HD
ENDROOT
BRANCH   3   9
HETATM    9  C7  UNL     1     -32.842   8.913   0.711  1.00 20.00     0.032 C 
HETATM   10  C6  UNL     1     -32.651  10.392   0.678  1.00 20.00     0.007 C 
ENDBRANCH   3   9
TORSDOF 1
