REMARK  3 active torsions:
REMARK  status: ('A' for Active; 'I' for Inactive)
REMARK    1  A    between atoms: C4_4  and  C7_7 
REMARK    2  A    between atoms: C7_7  and  O10_10 
REMARK    3  A    between atoms: C8_8  and  O10_10 
ROOT
HETATM    1  C1  UNL     1     -33.721   6.282   2.854  1.00 20.00     0.071 C 
HETATM    2  C2  UNL     1     -32.130   5.196   1.228  1.00 20.00     0.028 A 
HETATM    3  C3  UNL     1     -33.311   5.683   0.440  1.00 20.00     0.028 A 
HETATM    4  C4  UNL     1     -32.886   6.422   1.689  1.00 20.00     0.070 A 
HETATM    5  N9  UNL     1     -34.394   6.170   3.793  1.00 20.00    -0.196 NA
ENDROOT
BRANCH   4   6
HETATM    6  C7  UNL     1     -32.227   7.762   1.528  1.00 20.00     0.192 C 
BRANCH   6   7
HETATM    7  O10 UNL     1     -33.224   8.772   1.422  1.00 20.00    -0.385 OA
BRANCH   7   8
HETATM    8  C8  UNL     1     -32.708   9.953   0.826  1.00 20.00     0.113 C 
HETATM    9  C5  UNL     1     -31.305  10.209   1.356  1.00 20.00     0.039 C 
HETATM   10  C6  UNL     1     -32.722   9.797  -0.687  1.00 20.00     0.039 C 
ENDBRANCH   7   8
ENDBRANCH   6   7
ENDBRANCH   4   6
TORSDOF 3
