REMARK  3 active torsions:
REMARK  status: ('A' for Active; 'I' for Inactive)
REMARK    1  A    between atoms: C3_3  and  C6_6 
REMARK    2  A    between atoms: C6_6  and  C8_8 
REMARK    3  A    between atoms: C7_7  and  C8_8 
ROOT
HETATM    1  C1  UNL     1     -33.698   7.786   3.694  1.00 20.00     0.285 C 
HETATM    2  C2  UNL     1     -32.800   7.775   2.460  1.00 20.00     0.073 C 
HETATM    3  C3  UNL     1     -34.321   5.656   2.877  1.00 20.00     0.282 C 
HETATM    4  C4  UNL     1     -31.398   8.284   2.748  1.00 20.00     0.023 C 
HETATM    5  N9  UNL     1     -34.852   6.915   3.421  1.00 20.00     0.098 N 
HETATM    6  S10 UNL     1     -32.794   6.032   1.961  1.00 20.00    -0.128 SA
HETATM    7  H27 UNL     1     -35.333   6.727   4.298  1.00 20.00     0.317 HD
ENDROOT
BRANCH   3   8
HETATM    8  C6  UNL     1     -34.039   4.654   3.991  1.00 20.00     0.046 C 
BRANCH   8   9
HETATM    9  C8  UNL     1     -33.465   3.351   3.438  1.00 20.00     0.002 C 
BRANCH   9  10
HETATM   10  C7  UNL     1     -33.215   2.337   4.554  1.00 20.00    -0.004 C 
HETATM   11  C5  UNL     1     -32.203   2.857   5.562  1.00 20.00     0.005 C 
ENDBRANCH   9  10
ENDBRANCH   8   9
ENDBRANCH   3   8
TORSDOF 3
