REMARK  1 active torsions:
REMARK  status: ('A' for Active; 'I' for Inactive)
REMARK    1  A    between atoms: C3_3  and  C7_7 
ROOT
HETATM    1  C1  UNL     1     -32.063   7.439   0.357  1.00 20.00     0.111 C 
HETATM    2  C2  UNL     1     -32.353   8.721   1.135  1.00 20.00     0.227 C 
HETATM    3  C3  UNL     1     -33.124   7.191   2.756  1.00 20.00     0.285 C 
HETATM    4  C4  UNL     1     -32.714   9.872   0.203  1.00 20.00     0.043 C 
HETATM    5  N8  UNL     1     -33.467   8.436   2.055  1.00 20.00     0.102 N 
HETATM    6  S9  UNL     1     -32.194   6.136   1.602  1.00 20.00    -0.131 SA
HETATM    7  H24 UNL     1     -33.592   9.198   2.719  1.00 20.00     0.317 HD
ENDROOT
BRANCH   3   8
HETATM    8  C7  UNL     1     -34.374   6.477   3.253  1.00 20.00     0.021 C 
HETATM    9  C5  UNL     1     -34.010   5.164   3.948  1.00 20.00     0.012 C 
HETATM   10  C6  UNL     1     -35.174   7.375   4.197  1.00 20.00     0.012 C 
ENDBRANCH   3   8
TORSDOF 1
