REMARK  1 active torsions:
REMARK  status: ('A' for Active; 'I' for Inactive)
REMARK    1  A    between atoms: C4_4  and  C7_7 
ROOT
HETATM    1  C1  UNL     1     -33.551   6.187   2.483  1.00 20.00     0.109 C 
HETATM    2  C2  UNL     1     -31.972   8.423   2.887  1.00 20.00     0.109 C 
HETATM    3  C3  UNL     1     -32.500   6.154   1.365  1.00 20.00     0.226 C 
HETATM    4  C4  UNL     1     -31.944   8.544   1.354  1.00 20.00     0.230 C 
HETATM    5  C5  UNL     1     -32.801   4.997   0.408  1.00 20.00     0.043 C 
HETATM    6  N8  UNL     1     -32.511   7.408   0.616  1.00 20.00     0.093 N 
HETATM    7  S9  UNL     1     -33.506   7.687   3.520  1.00 20.00    -0.165 SA
HETATM    8  H24 UNL     1     -31.990   7.285  -0.260  1.00 20.00     0.316 HD
ENDROOT
BRANCH   4   9
HETATM    9  C7  UNL     1     -32.657   9.811   0.877  1.00 20.00     0.032 C 
HETATM   10  C6  UNL     1     -32.578   9.959  -0.606  1.00 20.00     0.007 C 
ENDBRANCH   4   9
TORSDOF 1
