REMARK  2 active torsions:
REMARK  status: ('A' for Active; 'I' for Inactive)
REMARK    1  A    between atoms: C3_3  and  C7_7 
REMARK    2  A    between atoms: C7_7  and  C8_8 
ROOT
HETATM    1  C1  UNL     1     -32.169  10.071  -0.455  1.00 20.00     0.012 C 
HETATM    2  C2  UNL     1     -32.480   9.821   0.677  1.00 20.00    -0.116 C 
HETATM    3  C8  UNL     1     -32.862   9.524   2.062  1.00 20.00     0.113 C 
ENDROOT
BRANCH   3   4
HETATM    4  C7  UNL     1     -32.847   7.994   2.331  1.00 20.00     0.058 C 
HETATM    5  C5  UNL     1     -31.554   7.249   1.871  1.00 20.00     0.021 C 
HETATM    6  C4  UNL     1     -32.442   6.122   1.317  1.00 20.00     0.003 C 
HETATM    7  C6  UNL     1     -33.608   7.125   1.278  1.00 20.00     0.021 C 
BRANCH   4   8
HETATM    8  C3  UNL     1     -33.246   7.687   3.776  1.00 20.00     0.182 C 
HETATM    9  O9  UNL     1     -34.020   6.701   3.925  1.00 20.00    -0.647 OA
HETATM   10  O10 UNL     1     -32.747   8.463   4.639  1.00 20.00    -0.647 OA
ENDBRANCH   4   8
ENDBRANCH   3   4
TORSDOF 2
