REMARK  0 active torsions:
REMARK  status: ('A' for Active; 'I' for Inactive)
ROOT
HETATM    1  C1  UNL     1     -34.384   7.951   4.479  1.00 20.00     0.019 A 
HETATM    2  C2  UNL     1     -33.451   8.403   3.483  1.00 20.00     0.031 A 
HETATM    3  C3  UNL     1     -34.779   6.673   4.489  1.00 20.00     0.094 A 
HETATM    4  C4  UNL     1     -32.971   7.558   2.562  1.00 20.00     0.102 A 
HETATM    5  C5  UNL     1     -33.399   6.121   2.553  1.00 20.00     0.268 A 
HETATM    6  C6  UNL     1     -34.780   4.382   3.624  1.00 20.00     0.159 C 
HETATM    7  N7  UNL     1     -34.311   5.761   3.558  1.00 20.00    -0.328 N 
HETATM    8  O8  UNL     1     -32.954   5.348   1.704  1.00 20.00    -0.266 OA
HETATM    9 CL9  UNL     1     -31.854   8.075   1.361  1.00 20.00    -0.078 Cl
ENDROOT
TORSDOF 0
