REMARK  2 active torsions:
REMARK  status: ('A' for Active; 'I' for Inactive)
REMARK    1  A    between atoms: C3_3  and  C6_6 
REMARK    2  A    between atoms: C6_6  and  C7_7 
ROOT
HETATM    1  C1  UNL     1     -34.277   7.428   3.962  1.00 20.00     0.285 C 
HETATM    2  C2  UNL     1     -34.409   6.183   3.085  1.00 20.00     0.073 C 
HETATM    3  C3  UNL     1     -32.331   7.769   2.651  1.00 20.00     0.282 C 
HETATM    4  C4  UNL     1     -33.980   4.904   3.794  1.00 20.00     0.023 C 
HETATM    5  N8  UNL     1     -32.861   7.800   4.017  1.00 20.00     0.098 N 
HETATM    6  S9  UNL     1     -33.282   6.535   1.705  1.00 20.00    -0.128 SA
HETATM    7  H24 UNL     1     -32.794   8.756   4.378  1.00 20.00     0.317 HD
ENDROOT
BRANCH   3   8
HETATM    8  C6  UNL     1     -32.420   9.132   1.971  1.00 20.00     0.046 C 
BRANCH   8   9
HETATM    9  C7  UNL     1     -32.379   9.002   0.451  1.00 20.00    -0.002 C 
HETATM   10  C5  UNL     1     -32.496  10.358  -0.227  1.00 20.00     0.005 C 
ENDBRANCH   8   9
ENDBRANCH   3   8
TORSDOF 2
