REMARK  3 active torsions:
REMARK  status: ('A' for Active; 'I' for Inactive)
REMARK    1  A    between atoms: C3_3  and  C6_6 
REMARK    2  A    between atoms: C6_6  and  C8_8 
REMARK    3  A    between atoms: C7_7  and  C8_8 
ROOT
HETATM    1  C1  UNL     1     -33.376   5.003   3.606  1.00 20.00     0.111 C 
HETATM    2  C2  UNL     1     -33.909   6.373   4.024  1.00 20.00     0.227 C 
HETATM    3  C3  UNL     1     -32.801   7.029   2.021  1.00 20.00     0.282 C 
HETATM    4  C4  UNL     1     -35.376   6.594   3.644  1.00 20.00     0.043 C 
HETATM    5  N9  UNL     1     -33.034   7.398   3.426  1.00 20.00     0.102 N 
HETATM    6  S10 UNL     1     -32.820   5.215   1.899  1.00 20.00    -0.132 SA
HETATM    7  H27 UNL     1     -33.533   8.290   3.440  1.00 20.00     0.317 HD
ENDROOT
BRANCH   3   8
HETATM    8  C6  UNL     1     -31.475   7.586   1.521  1.00 20.00     0.046 C 
BRANCH   8   9
HETATM    9  C8  UNL     1     -31.446   9.110   1.606  1.00 20.00     0.002 C 
BRANCH   9  10
HETATM   10  C7  UNL     1     -32.577   9.731   0.787  1.00 20.00    -0.004 C 
HETATM   11  C5  UNL     1     -32.455   9.379  -0.687  1.00 20.00     0.005 C 
ENDBRANCH   9  10
ENDBRANCH   8   9
ENDBRANCH   3   8
TORSDOF 3
