REMARK  3 active torsions:
REMARK  status: ('A' for Active; 'I' for Inactive)
REMARK    1  A    between atoms: C1_1  and  C6_6 
REMARK    2  A    between atoms: C1_1  and  O9_9 
REMARK    3  A    between atoms: C7_7  and  O9_9 
ROOT
HETATM    1  C1  UNL     1     -33.080   6.340   2.010  1.00 20.00     0.274 C 
HETATM    2  O8  UNL     1     -32.741   5.466   1.222  1.00 20.00    -0.264 OA
ENDROOT
BRANCH   1   3
HETATM    3  C6  UNL     1     -33.248   6.141   3.507  1.00 20.00     0.154 C 
HETATM    4  C2  UNL     1     -34.258   7.143   4.062  1.00 20.00     0.033 C 
HETATM    5  S10 UNL     1     -33.855   4.443   3.791  1.00 20.00    -0.082 SA
ENDBRANCH   1   3
BRANCH   1   6
HETATM    6  O9  UNL     1     -33.370   7.637   1.680  1.00 20.00    -0.310 OA
BRANCH   6   7
HETATM    7  C7  UNL     1     -32.311   8.370   1.064  1.00 20.00     0.060 C 
HETATM    8  C3  UNL     1     -31.919   7.661  -0.231  1.00 20.00     0.045 C 
HETATM    9  C4  UNL     1     -32.834   9.775   0.771  1.00 20.00     0.045 C 
HETATM   10  C5  UNL     1     -31.131   8.427   2.033  1.00 20.00     0.045 C 
ENDBRANCH   6   7
ENDBRANCH   1   6
TORSDOF 3
