REMARK  3 active torsions:
REMARK  status: ('A' for Active; 'I' for Inactive)
REMARK    1  A    between atoms: C4_4  and  O11_11 
REMARK    2  A    between atoms: C8_8  and  C10_10 
REMARK    3  A    between atoms: C10_10  and  O11_11 
ROOT
HETATM    1  C1  UNL     1     -34.223   5.515   3.754  1.00 20.00    -0.030 C 
HETATM    2  C2  UNL     1     -34.242   6.844   3.915  1.00 20.00    -0.030 C 
HETATM    3  C5  UNL     1     -33.479   4.837   2.645  1.00 20.00     0.031 C 
HETATM    4  C6  UNL     1     -33.495   7.787   3.022  1.00 20.00     0.034 C 
HETATM    5  C7  UNL     1     -33.031   5.797   1.522  1.00 20.00    -0.009 C 
HETATM    6  C8  UNL     1     -32.443   7.092   2.131  1.00 20.00     0.017 C 
HETATM    7  C9  UNL     1     -32.058   5.071   0.590  1.00 20.00     0.011 C 
ENDROOT
BRANCH   6   8
HETATM    8  C10 UNL     1     -31.937   8.079   1.077  1.00 20.00     0.179 C 
BRANCH   8   9
HETATM    9  O11 UNL     1     -33.038   8.830   0.603  1.00 20.00    -0.363 OA
BRANCH   9  10
HETATM   10  C4  UNL     1     -32.729   9.977   0.005  1.00 20.00     0.124 C 
HETATM   11  C3  UNL     1     -32.613  11.154   0.623  1.00 20.00     0.037 C 
ENDBRANCH   9  10
ENDBRANCH   8   9
ENDBRANCH   6   8
TORSDOF 3
