REMARK  1 active torsions:
REMARK  status: ('A' for Active; 'I' for Inactive)
REMARK    1  A    between atoms: C2_2  and  O8_8 
ROOT
HETATM    1  C1  UNL     1     -32.710   5.289   3.043  1.00 20.00     0.053 C 
HETATM    2  C2  UNL     1     -33.563   6.530   2.694  1.00 20.00     0.131 C 
HETATM    3  C3  UNL     1     -33.949   4.704   3.756  1.00 20.00     0.095 C 
HETATM    4  C4  UNL     1     -34.467   6.175   3.926  1.00 20.00    -0.005 C 
HETATM    5  C5  UNL     1     -34.080   6.879   5.229  1.00 20.00     0.019 C 
HETATM    6  C6  UNL     1     -35.961   6.327   3.648  1.00 20.00     0.019 C 
HETATM    7 CL9  UNL     1     -33.694   3.650   5.183  1.00 20.00    -0.124 Cl
ENDROOT
BRANCH   2   8
HETATM    8  O8  UNL     1     -32.889   7.800   2.734  1.00 20.00    -0.390 OA
HETATM    9  C7  UNL     1     -32.136   8.009   1.555  1.00 20.00     0.202 C 
ENDBRANCH   2   8
TORSDOF 1
