REMARK  3 active torsions:
REMARK  status: ('A' for Active; 'I' for Inactive)
REMARK    1  A    between atoms: C2_2  and  O10_10 
REMARK    2  A    between atoms: C7_7  and  C8_8 
REMARK    3  A    between atoms: C8_8  and  O10_10 
ROOT
HETATM    1  C3  UNL     1     -34.856   6.929   4.115  1.00 20.00     0.005 C 
HETATM    2  C4  UNL     1     -34.725   5.414   4.231  1.00 20.00     0.026 C 
HETATM    3  C5  UNL     1     -33.562   7.539   3.584  1.00 20.00     0.034 C 
HETATM    4  C6  UNL     1     -34.214   4.817   2.927  1.00 20.00     0.168 C 
HETATM    5  C7  UNL     1     -33.117   6.829   2.304  1.00 20.00     0.145 C 
HETATM    6  O9  UNL     1     -32.981   5.423   2.541  1.00 20.00    -0.384 OA
ENDROOT
BRANCH   5   7
HETATM    7  C8  UNL     1     -31.769   7.353   1.827  1.00 20.00     0.206 C 
BRANCH   7   8
HETATM    8  O10 UNL     1     -31.891   8.739   1.558  1.00 20.00    -0.361 OA
BRANCH   8   9
HETATM    9  C2  UNL     1     -32.439   9.042   0.387  1.00 20.00     0.124 C 
HETATM   10  C1  UNL     1     -33.156  10.141   0.139  1.00 20.00     0.037 C 
ENDBRANCH   8   9
ENDBRANCH   7   8
ENDBRANCH   5   7
TORSDOF 3
