REMARK  3 active torsions:
REMARK  status: ('A' for Active; 'I' for Inactive)
REMARK    1  A    between atoms: C2_2  and  O6_6 
REMARK    2  A    between atoms: C4_4  and  C5_5 
REMARK    3  A    between atoms: C4_4  and  O6_6 
ROOT
HETATM    1  C3  UNL     1     -33.334   5.891   1.515  1.00 20.00     0.049 C 
HETATM    2  C4  UNL     1     -33.199   6.967   2.550  1.00 20.00     0.231 C 
ENDROOT
BRANCH   2   3
HETATM    3  C5  UNL     1     -34.218   6.823   3.660  1.00 20.00     0.413 C 
HETATM    4  F7  UNL     1     -34.098   7.829   4.556  1.00 20.00    -0.168 F 
HETATM    5  F8  UNL     1     -35.478   6.865   3.173  1.00 20.00    -0.168 F 
HETATM    6  F9  UNL     1     -34.070   5.659   4.328  1.00 20.00    -0.168 F 
ENDBRANCH   2   3
BRANCH   2   7
HETATM    7  O6  UNL     1     -33.386   8.242   1.940  1.00 20.00    -0.350 OA
BRANCH   7   8
HETATM    8  C2  UNL     1     -32.332   8.708   1.286  1.00 20.00     0.125 C 
HETATM    9  C1  UNL     1     -32.386   9.512   0.222  1.00 20.00     0.037 C 
ENDBRANCH   7   8
ENDBRANCH   2   7
TORSDOF 3
