REMARK  1 active torsions:
REMARK  status: ('A' for Active; 'I' for Inactive)
REMARK    1  A    between atoms: C6_6  and  O10_10 
ROOT
HETATM    1  C1  UNL     1     -32.440   8.911   0.603  1.00 20.00     0.001 C 
HETATM    2  C2  UNL     1     -31.682   9.131   1.901  1.00 20.00     0.001 C 
HETATM    3  C3  UNL     1     -33.543   7.926   0.986  1.00 20.00     0.013 C 
HETATM    4  C4  UNL     1     -31.583   7.720   2.466  1.00 20.00     0.013 C 
HETATM    5  C5  UNL     1     -33.391   5.496   3.513  1.00 20.00     0.053 C 
HETATM    6  C6  UNL     1     -33.033   5.543   2.009  1.00 20.00     0.132 C 
HETATM    7  C7  UNL     1     -33.961   6.922   3.349  1.00 20.00     0.095 C 
HETATM    8  C8  UNL     1     -32.957   7.108   2.150  1.00 20.00     0.003 C 
HETATM    9 CL11 UNL     1     -33.938   8.023   4.763  1.00 20.00    -0.124 Cl
ENDROOT
BRANCH   6  10
HETATM   10  O10 UNL     1     -31.843   4.846   1.603  1.00 20.00    -0.390 OA
HETATM   11  C9  UNL     1     -31.635   4.970   0.209  1.00 20.00     0.202 C 
ENDBRANCH   6  10
TORSDOF 1
