REMARK  2 active torsions:
REMARK  status: ('A' for Active; 'I' for Inactive)
REMARK    1  A    between atoms: C3_3  and  O11_11 
REMARK    2  A    between atoms: C9_9  and  O11_11 
ROOT
HETATM    1  C1  UNL     1     -33.957   7.796   3.809  1.00 20.00     0.069 C 
HETATM    2  C2  UNL     1     -34.893   6.695   3.266  1.00 20.00     0.173 C 
HETATM    3  C3  UNL     1     -32.973   7.453   2.660  1.00 20.00     0.135 C 
HETATM    4  C4  UNL     1     -33.638   6.030   2.597  1.00 20.00     0.008 C 
HETATM    5  C5  UNL     1     -33.927   5.511   1.186  1.00 20.00     0.020 C 
HETATM    6  C6  UNL     1     -32.825   4.993   3.386  1.00 20.00     0.020 C 
HETATM    7  O10 UNL     1     -35.502   5.936   4.275  1.00 20.00    -0.234 OA
ENDROOT
BRANCH   3   8
HETATM    8  O11 UNL     1     -33.093   8.278   1.483  1.00 20.00    -0.380 OA
BRANCH   8   9
HETATM    9  C9  UNL     1     -32.128   9.311   1.495  1.00 20.00     0.114 C 
HETATM   10  C7  UNL     1     -30.852   8.811   0.835  1.00 20.00     0.039 C 
HETATM   11  C8  UNL     1     -32.693  10.531   0.785  1.00 20.00     0.039 C 
ENDBRANCH   8   9
ENDBRANCH   3   8
TORSDOF 2
