REMARK  1 active torsions:
REMARK  status: ('A' for Active; 'I' for Inactive)
REMARK    1  A    between atoms: C1_1  and  C7_7 
ROOT
HETATM    1  C2  UNL     1     -32.386   8.703   3.711  1.00 20.00     0.002 C 
HETATM    2  C3  UNL     1     -33.491   7.652   3.775  1.00 20.00     0.012 C 
HETATM    3  C4  UNL     1     -33.184   6.161   1.740  1.00 20.00     0.013 C 
HETATM    4  C5  UNL     1     -31.261   8.526   2.691  1.00 20.00     0.008 C 
HETATM    5  C6  UNL     1     -31.967   6.730   1.015  1.00 20.00     0.009 C 
HETATM    6  C7  UNL     1     -33.121   6.261   3.265  1.00 20.00     0.055 C 
HETATM    7  C8  UNL     1     -31.639   8.228   1.222  1.00 20.00    -0.048 C 
HETATM    8  C10 UNL     1     -30.390   8.533   0.356  1.00 20.00     0.015 C 
HETATM    9  C11 UNL     1     -32.776   9.132   0.718  1.00 20.00     0.015 C 
ENDROOT
BRANCH   6  10
HETATM   10  C1  UNL     1     -34.105   5.283   3.840  1.00 20.00     0.127 C 
HETATM   11  C9  UNL     1     -33.598   3.891   4.107  1.00 20.00     0.091 C 
HETATM   12  O12 UNL     1     -35.267   5.604   4.083  1.00 20.00    -0.298 OA
ENDBRANCH   6  10
TORSDOF 1
