REMARK  2 active torsions:
REMARK  status: ('A' for Active; 'I' for Inactive)
REMARK    1  A    between atoms: C3_3  and  C6_6 
REMARK    2  A    between atoms: C6_6  and  C7_7 
ROOT
HETATM    1  C4  UNL     1     -32.419   6.103   1.561  1.00 20.00     0.011 C 
HETATM    2  C6  UNL     1     -33.054   7.456   1.783  1.00 20.00    -0.001 C 
ENDROOT
BRANCH   2   3
HETATM    3  C3  UNL     1     -32.136   8.556   1.234  1.00 20.00    -0.010 A 
HETATM    4  C1  UNL     1     -32.039   8.792  -0.248  1.00 20.00     0.005 A 
HETATM    5  C2  UNL     1     -32.724   9.801   0.631  1.00 20.00     0.005 A 
ENDBRANCH   2   3
BRANCH   2   6
HETATM    6  C7  UNL     1     -33.424   7.740   3.253  1.00 20.00     0.058 C 
HETATM    7  C5  UNL     1     -33.799   9.178   3.582  1.00 20.00     0.022 C 
HETATM    8 BR8  UNL     1     -34.901   6.569   3.815  1.00 20.00    -0.091 Br
ENDBRANCH   2   6
TORSDOF 2
