REMARK  3 active torsions:
REMARK  status: ('A' for Active; 'I' for Inactive)
REMARK    1  A    between atoms: C1_1  and  C7_7 
REMARK    2  A    between atoms: C8_8  and  C11_11 
REMARK    3  A    between atoms: C11_11  and  C12_12 
ROOT
HETATM    1  C2  UNL     1     -32.045   8.493   3.719  1.00 20.00     0.001 C 
HETATM    2  C3  UNL     1     -33.378   7.785   3.944  1.00 20.00     0.012 C 
HETATM    3  C4  UNL     1     -33.315   6.100   1.948  1.00 20.00     0.012 C 
HETATM    4  C5  UNL     1     -31.324   8.182   2.411  1.00 20.00     0.005 C 
HETATM    5  C6  UNL     1     -33.411   7.361   1.089  1.00 20.00     0.005 C 
HETATM    6  C7  UNL     1     -33.431   6.329   3.468  1.00 20.00     0.055 C 
HETATM    7  C8  UNL     1     -32.164   8.267   1.128  1.00 20.00    -0.014 C 
ENDROOT
BRANCH   6   8
HETATM    8  C1  UNL     1     -34.729   5.738   3.939  1.00 20.00     0.127 C 
HETATM    9  C9  UNL     1     -34.720   4.273   4.284  1.00 20.00     0.091 C 
HETATM   10  O13 UNL     1     -35.749   6.418   4.039  1.00 20.00    -0.298 OA
ENDBRANCH   6   8
BRANCH   7  11
HETATM   11  C11 UNL     1     -32.551   9.712   0.803  1.00 20.00     0.004 C 
BRANCH  11  12
HETATM   12  C12 UNL     1     -32.898   9.866  -0.671  1.00 20.00    -0.004 C 
HETATM   13  C10 UNL     1     -33.305  11.296  -0.989  1.00 20.00     0.005 C 
ENDBRANCH  11  12
ENDBRANCH   7  11
TORSDOF 3
