REMARK  1 active torsions:
REMARK  status: ('A' for Active; 'I' for Inactive)
REMARK    1  A    between atoms: C6_6  and  C11_11 
ROOT
HETATM    1  C1  UNL     1     -32.857   5.511   1.328  1.00 20.00     0.001 C 
HETATM    2  C2  UNL     1     -31.609   6.321   1.656  1.00 20.00     0.006 C 
HETATM    3  C3  UNL     1     -32.714   8.287   2.895  1.00 20.00     0.007 C 
HETATM    4  C4  UNL     1     -33.699   5.093   2.531  1.00 20.00     0.008 C 
HETATM    5  C5  UNL     1     -34.095   7.630   2.994  1.00 20.00     0.009 C 
HETATM    6  C6  UNL     1     -31.813   7.839   1.740  1.00 20.00     0.003 C 
HETATM    7  C7  UNL     1     -34.151   6.181   3.541  1.00 20.00    -0.048 C 
HETATM    8  C8  UNL     1     -35.627   5.887   3.911  1.00 20.00     0.015 C 
HETATM    9  C9  UNL     1     -33.336   6.042   4.845  1.00 20.00     0.015 C 
ENDROOT
BRANCH   6  10
HETATM   10  C11 UNL     1     -32.270   8.443   0.406  1.00 20.00     0.082 C 
HETATM   11  C10 UNL     1     -31.231   8.224  -0.677  1.00 20.00     0.027 C 
HETATM   12 CL12 UNL     1     -32.565  10.187   0.626  1.00 20.00    -0.125 Cl
ENDBRANCH   6  10
TORSDOF 1
