REMARK  2 active torsions:
REMARK  status: ('A' for Active; 'I' for Inactive)
REMARK    1  A    between atoms: C4_4  and  C8_8 
REMARK    2  A    between atoms: C5_5  and  C9_9 
ROOT
HETATM    1  C1  UNL     1     -32.036   6.647   0.511  1.00 20.00     0.005 C 
HETATM    2  C2  UNL     1     -33.057   5.882   1.359  1.00 20.00     0.006 C 
HETATM    3  C3  UNL     1     -32.616   7.991   2.424  1.00 20.00     0.010 C 
HETATM    4  C4  UNL     1     -31.503   7.773   1.402  1.00 20.00    -0.014 C 
HETATM    5  C5  UNL     1     -33.061   6.563   2.730  1.00 20.00    -0.000 C 
ENDROOT
BRANCH   5   6
HETATM    6  C9  UNL     1     -34.407   6.494   3.431  1.00 20.00     0.058 C 
HETATM    7  C7  UNL     1     -34.815   5.068   3.754  1.00 20.00     0.022 C 
HETATM    8 BR10 UNL     1     -34.307   7.514   5.098  1.00 20.00    -0.091 Br
ENDBRANCH   5   6
BRANCH   4   9
HETATM    9  C8  UNL     1     -31.146   9.032   0.629  1.00 20.00     0.000 C 
HETATM   10  C6  UNL     1     -32.322   9.585  -0.112  1.00 20.00     0.005 C 
ENDBRANCH   4   9
TORSDOF 2
