REMARK  2 active torsions:
REMARK  status: ('A' for Active; 'I' for Inactive)
REMARK    1  A    between atoms: C5_5  and  C7_7 
REMARK    2  A    between atoms: C6_6  and  C8_8 
ROOT
HETATM    1  C1  UNL     1     -31.731   5.347   1.383  1.00 20.00     0.001 C 
HETATM    2  C2  UNL     1     -31.422   6.690   0.729  1.00 20.00     0.005 C 
HETATM    3  C3  UNL     1     -33.088   5.360   2.082  1.00 20.00     0.013 C 
HETATM    4  C4  UNL     1     -32.880   7.854   2.435  1.00 20.00     0.018 C 
HETATM    5  C5  UNL     1     -31.513   7.844   1.736  1.00 20.00    -0.004 C 
HETATM    6  C6  UNL     1     -33.189   6.504   3.099  1.00 20.00     0.094 C 
ENDROOT
BRANCH   6   7
HETATM    7  C8  UNL     1     -34.571   6.527   3.749  1.00 20.00     0.391 C 
HETATM    8  F9  UNL     1     -34.633   7.510   4.660  1.00 20.00    -0.171 F 
HETATM    9  F10 UNL     1     -35.513   6.736   2.818  1.00 20.00    -0.171 F 
HETATM   10  F11 UNL     1     -34.812   5.355   4.357  1.00 20.00    -0.171 F 
ENDBRANCH   6   7
BRANCH   5  11
HETATM   11  C7  UNL     1     -31.249   9.182   1.048  1.00 20.00     0.089 C 
HETATM   12 BR12 UNL     1     -32.537   9.438  -0.378  1.00 20.00    -0.096 Br
ENDBRANCH   5  11
TORSDOF 2
