REMARK  2 active torsions:
REMARK  status: ('A' for Active; 'I' for Inactive)
REMARK    1  A    between atoms: C5_5  and  C9_9 
REMARK    2  A    between atoms: C6_6  and  C10_10 
ROOT
HETATM    1  C1  UNL     1     -33.578   8.663   1.713  1.00 20.00     0.005 C 
HETATM    2  C2  UNL     1     -32.128   7.032   0.442  1.00 20.00     0.005 C 
HETATM    3  C3  UNL     1     -33.724   7.650   2.847  1.00 20.00     0.006 C 
HETATM    4  C4  UNL     1     -32.274   6.019   1.576  1.00 20.00     0.006 C 
HETATM    5  C5  UNL     1     -32.261   8.474   0.949  1.00 20.00    -0.015 C 
HETATM    6  C6  UNL     1     -33.591   6.209   2.339  1.00 20.00     0.003 C 
ENDROOT
BRANCH   6   7
HETATM    7  C10 UNL     1     -33.691   5.218   3.497  1.00 20.00     0.082 C 
HETATM    8  C8  UNL     1     -33.599   3.782   3.009  1.00 20.00     0.027 C 
HETATM    9 CL11 UNL     1     -35.235   5.465   4.357  1.00 20.00    -0.125 Cl
ENDBRANCH   6   7
BRANCH   5  10
HETATM   10  C9  UNL     1     -32.163   9.464  -0.210  1.00 20.00     0.000 C 
HETATM   11  C7  UNL     1     -32.250  10.878   0.264  1.00 20.00     0.005 C 
ENDBRANCH   5  10
TORSDOF 2
