REMARK  2 active torsions:
REMARK  status: ('A' for Active; 'I' for Inactive)
REMARK    1  A    between atoms: C5_5  and  S10_10 
REMARK    2  A    between atoms: C8_8  and  S10_10 
ROOT
HETATM    1  C1  UNL     1     -32.919   5.869   1.897  1.00 20.00     0.080 C 
HETATM    2  C2  UNL     1     -33.999   7.117   4.894  1.00 20.00     0.009 C 
HETATM    3  C3  UNL     1     -32.687   7.150   4.082  1.00 20.00     0.037 C 
HETATM    4  C4  UNL     1     -34.615   6.254   3.763  1.00 20.00     0.014 C 
HETATM    5  C5  UNL     1     -33.510   6.818   2.810  1.00 20.00     0.100 C 
HETATM    6  C6  UNL     1     -36.098   6.449   3.502  1.00 20.00     0.012 C 
HETATM    7  N9  UNL     1     -32.443   5.106   1.164  1.00 20.00    -0.196 NA
ENDROOT
BRANCH   5   8
HETATM    8  S10 UNL     1     -33.983   8.342   1.899  1.00 20.00    -0.144 SA
BRANCH   8   9
HETATM    9  C8  UNL     1     -32.339   8.785   1.301  1.00 20.00     0.071 C 
HETATM   10  C7  UNL     1     -32.396  10.057   0.477  1.00 20.00     0.016 C 
ENDBRANCH   8   9
ENDBRANCH   5   8
TORSDOF 2
