REMARK  1 active torsions:
REMARK  status: ('A' for Active; 'I' for Inactive)
REMARK    1  A    between atoms: C1_1  and  C3_3 
REMARK       I    between atoms: C3_3  and  N11_11 
ROOT
HETATM    1  C3  UNL     1     -34.331   5.848   3.834  1.00 20.00     0.243 C 
HETATM    2  C4  UNL     1     -32.296   6.353   0.763  1.00 20.00     0.030 C 
HETATM    3  C5  UNL     1     -32.770   5.415   1.866  1.00 20.00     0.127 C 
HETATM    4  C6  UNL     1     -33.450   7.662   2.395  1.00 20.00     0.134 C 
HETATM    5  C7  UNL     1     -32.253   7.736   1.437  1.00 20.00    -0.030 C 
HETATM    6  C9  UNL     1     -32.410   8.865   0.418  1.00 20.00     0.016 C 
HETATM    7  C10 UNL     1     -30.943   7.928   2.218  1.00 20.00     0.016 C 
HETATM    8  N11 UNL     1     -33.558   6.256   2.764  1.00 20.00    -0.348 N 
HETATM    9  O12 UNL     1     -34.976   6.605   4.559  1.00 20.00    -0.268 OA
ENDROOT
BRANCH   1  10
HETATM   10  C1  UNL     1     -34.366   4.398   4.111  1.00 20.00     0.070 C 
HETATM   11  C2  UNL     1     -33.277   3.675   4.404  1.00 20.00    -0.026 C 
HETATM   12  C8  UNL     1     -33.307   2.208   4.681  1.00 20.00     0.036 C 
ENDBRANCH   1  10
TORSDOF 1
