REMARK  3 active torsions:
REMARK  status: ('A' for Active; 'I' for Inactive)
REMARK    1  A    between atoms: C4_4  and  C5_5 
REMARK    2  A    between atoms: C4_4  and  O7_7 
REMARK    3  A    between atoms: C5_5  and  C6_6 
ROOT
HETATM    1  C1  UNL     1     -33.084   5.644   1.414  1.00 20.00     0.014 C 
HETATM    2  C5  UNL     1     -33.227   6.676   2.514  1.00 20.00     0.023 C 
ENDROOT
BRANCH   2   3
HETATM    3  C4  UNL     1     -33.205   8.096   1.923  1.00 20.00     0.172 C 
BRANCH   3   4
HETATM    4  O7  UNL     1     -31.972   8.307   1.241  1.00 20.00    -0.396 OA
HETATM    5  C3  UNL     1     -31.887   9.624   0.718  1.00 20.00     0.201 C 
ENDBRANCH   3   4
ENDBRANCH   2   3
BRANCH   2   6
HETATM    6  C6  UNL     1     -34.475   6.455   3.404  1.00 20.00     0.084 C 
HETATM    7  C2  UNL     1     -34.633   7.504   4.501  1.00 20.00     0.027 C 
HETATM    8 CL8  UNL     1     -34.517   4.823   4.143  1.00 20.00    -0.125 Cl
ENDBRANCH   2   6
TORSDOF 3
