REMARK  1 active torsions:
REMARK  status: ('A' for Active; 'I' for Inactive)
REMARK    1  A    between atoms: C4_4  and  C9_9 
ROOT
HETATM    1  C1  UNL     1     -32.122   6.793   0.388  1.00 20.00     0.032 C 
HETATM    2  C2  UNL     1     -33.612   8.003   1.992  1.00 20.00     0.043 C 
HETATM    3  C3  UNL     1     -32.071   5.647   1.388  1.00 20.00     0.169 C 
HETATM    4  C4  UNL     1     -32.371   8.124   1.100  1.00 20.00     0.008 C 
HETATM    5  C5  UNL     1     -33.550   6.780   2.927  1.00 20.00     0.054 C 
HETATM    6  C6  UNL     1     -34.935   6.552   3.550  1.00 20.00     0.045 C 
HETATM    7  C7  UNL     1     -32.537   6.969   4.065  1.00 20.00     0.045 C 
HETATM    8  O10 UNL     1     -33.257   5.591   2.177  1.00 20.00    -0.381 OA
ENDROOT
BRANCH   4   9
HETATM    9  C9  UNL     1     -32.530   9.261   0.092  1.00 20.00     0.082 C 
HETATM   10  C8  UNL     1     -31.271   9.447  -0.739  1.00 20.00     0.027 C 
HETATM   11 CL11 UNL     1     -32.907  10.774   0.961  1.00 20.00    -0.125 Cl
ENDBRANCH   4   9
TORSDOF 1
