REMARK  3 active torsions:
REMARK  status: ('A' for Active; 'I' for Inactive)
REMARK    1  A    between atoms: C4_4  and  C5_5 
REMARK    2  A    between atoms: C4_4  and  O7_7 
REMARK    3  A    between atoms: C5_5  and  C6_6 
ROOT
HETATM    1  C1  UNL     1     -33.162   7.940   4.133  1.00 20.00     0.014 C 
HETATM    2  C5  UNL     1     -33.625   6.997   3.042  1.00 20.00     0.023 C 
ENDROOT
BRANCH   2   3
HETATM    3  C4  UNL     1     -34.081   5.659   3.648  1.00 20.00     0.172 C 
BRANCH   3   4
HETATM    4  O7  UNL     1     -32.941   4.856   3.937  1.00 20.00    -0.396 OA
HETATM    5  C3  UNL     1     -33.318   3.588   4.456  1.00 20.00     0.201 C 
ENDBRANCH   3   4
ENDBRANCH   2   3
BRANCH   2   6
HETATM    6  C6  UNL     1     -32.570   6.773   1.931  1.00 20.00     0.084 C 
HETATM    7  C2  UNL     1     -33.028   5.812   0.838  1.00 20.00     0.027 C 
HETATM    8 CL8  UNL     1     -32.039   8.309   1.176  1.00 20.00    -0.125 Cl
ENDBRANCH   2   6
TORSDOF 3
