REMARK  1 active torsions:
REMARK  status: ('A' for Active; 'I' for Inactive)
REMARK    1  A    between atoms: C9_9  and  N10_10 
ROOT
HETATM    1  C1  UNL     1     -32.515  10.453   0.003  1.00 20.00     0.013 C 
HETATM    2  C2  UNL     1     -32.435   9.371   0.519  1.00 20.00    -0.087 C 
HETATM    3  C9  UNL     1     -32.332   8.052   1.146  1.00 20.00     0.364 C 
ENDROOT
BRANCH   3   4
HETATM    4  N10 UNL     1     -33.407   7.854   2.106  1.00 20.00     0.100 N 
HETATM    5  C3  UNL     1     -33.640   6.438   2.410  1.00 20.00     0.278 C 
HETATM    6  C5  UNL     1     -34.280   6.432   3.807  1.00 20.00     0.015 C 
HETATM    7  C6  UNL     1     -34.246   7.903   4.253  1.00 20.00     0.015 C 
HETATM    8  C7  UNL     1     -35.694   5.864   3.806  1.00 20.00     0.012 C 
HETATM    9  C4  UNL     1     -33.142   8.502   3.390  1.00 20.00     0.278 C 
HETATM   10  C8  UNL     1     -33.994   8.080   5.743  1.00 20.00     0.012 C 
ENDBRANCH   3   4
TORSDOF 1
