REMARK  2 active torsions:
REMARK  status: ('A' for Active; 'I' for Inactive)
REMARK    1  A    between atoms: C2_2  and  C3_3 
REMARK    2  A    between atoms: C2_2  and  N4_4 
ROOT
HETATM    1  C1  UNL     1     -32.438   7.067   1.878  1.00 20.00     0.332 C 
HETATM    2  N4  UNL     1     -33.225   6.199   1.794  1.00 20.00    -0.242 NA
HETATM    3  O5  UNL     1     -31.649   7.936   1.958  1.00 20.00    -0.260 OA
ENDROOT
BRANCH   2   4
HETATM    4  C2  UNL     1     -33.716   5.704   3.082  1.00 20.00     0.224 C 
BRANCH   4   5
HETATM    5  C3  UNL     1     -34.929   6.507   3.491  1.00 20.00     0.372 C 
HETATM    6  F6  UNL     1     -34.545   7.680   4.050  1.00 20.00    -0.213 F 
HETATM    7  F7  UNL     1     -35.640   5.833   4.428  1.00 20.00    -0.213 F 
ENDBRANCH   4   5
ENDBRANCH   2   4
TORSDOF 2
