REMARK  2 active torsions:
REMARK  status: ('A' for Active; 'I' for Inactive)
REMARK    1  A    between atoms: C4_4  and  C9_9 
REMARK    2  A    between atoms: C5_5  and  C8_8 
ROOT
HETATM    1  C1  UNL     1     -31.850   6.746   0.353  1.00 20.00     0.032 C 
HETATM    2  C2  UNL     1     -32.520   8.060   2.386  1.00 20.00     0.038 C 
HETATM    3  C3  UNL     1     -31.767   5.632   1.393  1.00 20.00     0.168 C 
HETATM    4  C4  UNL     1     -32.634   7.964   0.863  1.00 20.00     0.008 C 
HETATM    5  C5  UNL     1     -33.017   6.771   3.064  1.00 20.00     0.121 C 
HETATM    6  O10 UNL     1     -32.936   5.627   2.203  1.00 20.00    -0.386 OA
ENDROOT
BRANCH   4   7
HETATM    7  C9  UNL     1     -32.167   9.247   0.182  1.00 20.00     0.082 C 
HETATM    8  C7  UNL     1     -32.915  10.457   0.713  1.00 20.00     0.027 C 
HETATM    9 CL11 UNL     1     -30.416   9.452   0.451  1.00 20.00    -0.125 Cl
ENDBRANCH   4   7
BRANCH   5  10
HETATM   10  C8  UNL     1     -34.471   6.893   3.504  1.00 20.00     0.027 C 
HETATM   11  C6  UNL     1     -34.965   5.636   4.146  1.00 20.00     0.007 C 
ENDBRANCH   5  10
TORSDOF 2
