REMARK  2 active torsions:
REMARK  status: ('A' for Active; 'I' for Inactive)
REMARK    1  A    between atoms: C4_4  and  C9_9 
REMARK    2  A    between atoms: C5_5  and  C8_8 
ROOT
HETATM    1  C1  UNL     1     -32.190   6.770   0.444  1.00 20.00     0.032 C 
HETATM    2  C2  UNL     1     -32.391   8.087   2.603  1.00 20.00     0.038 C 
HETATM    3  C3  UNL     1     -32.324   5.618   1.428  1.00 20.00     0.168 C 
HETATM    4  C4  UNL     1     -31.805   8.062   1.180  1.00 20.00     0.008 C 
HETATM    5  C5  UNL     1     -33.636   7.203   2.700  1.00 20.00     0.121 C 
HETATM    6  O10 UNL     1     -33.347   5.833   2.402  1.00 20.00    -0.386 OA
ENDROOT
BRANCH   4   7
HETATM    7  C9  UNL     1     -32.234   9.286   0.371  1.00 20.00     0.082 C 
HETATM    8  C7  UNL     1     -31.598   9.287  -1.007  1.00 20.00     0.027 C 
HETATM    9 CL11 UNL     1     -34.011   9.297   0.217  1.00 20.00    -0.125 Cl
ENDBRANCH   4   7
BRANCH   5  10
HETATM   10  C8  UNL     1     -34.240   7.249   4.097  1.00 20.00     0.027 C 
HETATM   11  C6  UNL     1     -35.446   6.372   4.211  1.00 20.00     0.007 C 
ENDBRANCH   5  10
TORSDOF 2
