REMARK  3 active torsions:
REMARK  status: ('A' for Active; 'I' for Inactive)
REMARK    1  A    between atoms: C5_5  and  S11_11 
REMARK    2  A    between atoms: C8_8  and  C9_9 
REMARK    3  A    between atoms: C9_9  and  S11_11 
ROOT
HETATM    1  C1  UNL     1     -32.328   5.844   2.009  1.00 20.00     0.080 C 
HETATM    2  C2  UNL     1     -34.365   7.689   4.045  1.00 20.00     0.009 C 
HETATM    3  C3  UNL     1     -32.935   7.820   3.487  1.00 20.00     0.037 C 
HETATM    4  C4  UNL     1     -34.537   6.391   3.215  1.00 20.00     0.014 C 
HETATM    5  C5  UNL     1     -33.315   6.838   2.353  1.00 20.00     0.100 C 
HETATM    6  C6  UNL     1     -34.420   5.113   4.040  1.00 20.00     0.012 C 
HETATM    7  N10 UNL     1     -31.534   5.045   1.733  1.00 20.00    -0.196 NA
ENDROOT
BRANCH   5   8
HETATM    8  S11 UNL     1     -33.836   7.724   0.822  1.00 20.00    -0.143 SA
BRANCH   8   9
HETATM    9  C9  UNL     1     -32.432   8.852   0.699  1.00 20.00     0.075 C 
BRANCH   9  10
HETATM   10  C8  UNL     1     -32.596   9.779  -0.500  1.00 20.00     0.006 C 
HETATM   11  C7  UNL     1     -31.420  10.740  -0.614  1.00 20.00     0.006 C 
ENDBRANCH   9  10
ENDBRANCH   8   9
ENDBRANCH   5   8
TORSDOF 3
