REMARK  1 active torsions:
REMARK  status: ('A' for Active; 'I' for Inactive)
REMARK    1  A    between atoms: C1_1  and  C2_2 
ROOT
HETATM    1  C2  UNL     1     -33.523   7.403   2.111  1.00 20.00     0.089 A 
HETATM    2  C3  UNL     1     -32.494   6.488   1.465  1.00 20.00    -0.028 A 
HETATM    3  C4  UNL     1     -32.211   7.993   1.617  1.00 20.00    -0.028 A 
HETATM    4  C5  UNL     1     -32.822   5.929   0.097  1.00 20.00     0.016 C 
HETATM    5  C6  UNL     1     -31.724   5.496   2.310  1.00 20.00     0.016 C 
HETATM    6  C7  UNL     1     -31.168   8.459   2.609  1.00 20.00     0.016 C 
HETATM    7  C8  UNL     1     -32.267   8.885   0.396  1.00 20.00     0.016 C 
ENDROOT
BRANCH   1   8
HETATM    8  C1  UNL     1     -33.827   7.315   3.546  1.00 20.00     0.224 C 
HETATM    9  O9  UNL     1     -33.293   8.057   4.366  1.00 20.00    -0.279 OA
HETATM   10 CL10 UNL     1     -34.992   6.073   3.894  1.00 20.00    -0.043 Cl
ENDBRANCH   1   8
TORSDOF 1
