REMARK  4 active torsions:
REMARK  status: ('A' for Active; 'I' for Inactive)
REMARK    1  A    between atoms: C1_1  and  C7_7 
REMARK    2  A    between atoms: C1_1  and  C9_9 
REMARK    3  A    between atoms: C8_8  and  C9_9 
REMARK    4  A    between atoms: C9_9  and  N10_10 
ROOT
HETATM    1  C4  UNL     1     -32.638   5.924   3.853  1.00 20.00     0.058 C 
HETATM    2  C9  UNL     1     -33.426   6.639   2.749  1.00 20.00     0.214 C 
ENDROOT
BRANCH   2   3
HETATM    3  C1  UNL     1     -32.705   7.934   2.319  1.00 20.00     0.165 C 
HETATM    4  O11 UNL     1     -31.648   8.290   2.846  1.00 20.00    -0.295 OA
BRANCH   3   5
HETATM    5  C7  UNL     1     -33.353   8.774   1.224  1.00 20.00     0.076 C 
HETATM    6  C2  UNL     1     -32.558  10.031   0.909  1.00 20.00     0.013 C 
ENDBRANCH   3   5
ENDBRANCH   2   3
BRANCH   2   7
HETATM    7  C8  UNL     1     -33.638   5.688   1.551  1.00 20.00     0.045 C 
HETATM    8  C3  UNL     1     -32.362   5.227   0.851  1.00 20.00     0.008 C 
ENDBRANCH   2   7
BRANCH   2   9
HETATM    9  N10 UNL     1     -34.722   7.022   3.327  1.00 20.00     0.096 N 
HETATM   10  C5  UNL     1     -34.520   7.890   4.484  1.00 20.00     0.310 C 
HETATM   11  C6  UNL     1     -35.479   5.831   3.700  1.00 20.00     0.310 C 
ENDBRANCH   2   9
TORSDOF 4
