REMARK  2 active torsions:
REMARK  status: ('A' for Active; 'I' for Inactive)
REMARK    1  A    between atoms: C2_2  and  C3_3 
REMARK    2  A    between atoms: C2_2  and  C10_10 
ROOT
HETATM    1  C1  UNL     1     -33.124   3.366   4.700  1.00 20.00     0.066 C 
HETATM    2  C10 UNL     1     -34.459   3.928   4.468  1.00 20.00     0.202 C 
HETATM    3  N11 UNL     1     -32.070   2.918   4.884  1.00 20.00    -0.197 NA
ENDROOT
BRANCH   2   4
HETATM    4  C2  UNL     1     -34.410   5.403   4.145  1.00 20.00     0.145 C 
HETATM    5  O12 UNL     1     -35.303   6.204   4.390  1.00 20.00    -0.296 OA
BRANCH   4   6
HETATM    6  C3  UNL     1     -33.177   5.860   3.488  1.00 20.00     0.073 A 
HETATM    7  C4  UNL     1     -33.158   7.120   2.637  1.00 20.00    -0.029 A 
HETATM    8  C5  UNL     1     -32.994   5.737   1.983  1.00 20.00    -0.029 A 
HETATM    9  C6  UNL     1     -31.953   8.027   2.766  1.00 20.00     0.016 C 
HETATM   10  C7  UNL     1     -34.432   7.905   2.413  1.00 20.00     0.016 C 
HETATM   11  C8  UNL     1     -34.110   5.181   1.125  1.00 20.00     0.016 C 
HETATM   12  C9  UNL     1     -31.631   5.311   1.481  1.00 20.00     0.016 C 
ENDBRANCH   4   6
ENDBRANCH   2   4
TORSDOF 2
