REMARK  4 active torsions:
REMARK  status: ('A' for Active; 'I' for Inactive)
REMARK    1  A    between atoms: C4_4  and  C9_9 
REMARK    2  A    between atoms: C7_7  and  C9_9 
REMARK    3  A    between atoms: C8_8  and  C9_9 
REMARK    4  A    between atoms: C9_9  and  O11_11 
ROOT
HETATM    1  C1  UNL     1     -34.094   6.296   3.698  1.00 20.00     0.066 C 
HETATM    2  C6  UNL     1     -33.925   8.674   3.170  1.00 20.00     0.028 C 
HETATM    3  C8  UNL     1     -33.205   7.319   3.101  1.00 20.00     0.123 C 
HETATM    4  N10 UNL     1     -34.790   5.497   4.171  1.00 20.00    -0.197 NA
ENDROOT
BRANCH   3   5
HETATM    5  C9  UNL     1     -32.765   6.923   1.655  1.00 20.00     0.077 C 
BRANCH   5   6
HETATM    6  C4  UNL     1     -31.833   7.969   1.067  1.00 20.00     0.021 A 
HETATM    7  C2  UNL     1     -31.819   8.224  -0.415  1.00 20.00     0.008 A 
HETATM    8  C3  UNL     1     -32.388   9.255   0.519  1.00 20.00     0.008 A 
ENDBRANCH   5   6
BRANCH   5   9
HETATM    9  C7  UNL     1     -32.101   5.521   1.570  1.00 20.00     0.035 C 
HETATM   10  C5  UNL     1     -31.758   5.042   0.166  1.00 20.00     0.008 C 
ENDBRANCH   5   9
BRANCH   5  11
HETATM   11  O11 UNL     1     -33.939   6.879   0.829  1.00 20.00    -0.388 OA
HETATM   12  H26 UNL     1     -33.632   6.637  -0.055  1.00 20.00     0.210 HD
ENDBRANCH   5  11
ENDBRANCH   3   5
TORSDOF 4
