REMARK  3 active torsions:
REMARK  status: ('A' for Active; 'I' for Inactive)
REMARK    1  A    between atoms: C5_5  and  C7_7 
REMARK    2  A    between atoms: C6_6  and  C7_7 
REMARK    3  A    between atoms: C6_6  and  O9_9 
ROOT
HETATM    1  C1  UNL     1     -33.468   3.594   4.119  1.00 20.00     0.071 C 
HETATM    2  C4  UNL     1     -32.680   5.841   4.710  1.00 20.00     0.034 C 
HETATM    3  C7  UNL     1     -33.613   5.033   3.781  1.00 20.00     0.070 C 
HETATM    4  N8  UNL     1     -33.354   2.469   4.384  1.00 20.00    -0.196 NA
ENDROOT
BRANCH   3   5
HETATM    5  C5  UNL     1     -33.231   5.256   2.290  1.00 20.00     0.022 C 
HETATM    6  C2  UNL     1     -33.329   6.695   1.788  1.00 20.00     0.007 C 
ENDBRANCH   3   5
BRANCH   3   7
HETATM    7  C6  UNL     1     -35.089   5.490   4.023  1.00 20.00     0.136 C 
HETATM    8  C3  UNL     1     -35.265   6.946   4.454  1.00 20.00     0.041 C 
BRANCH   7   9
HETATM    9  O9  UNL     1     -35.698   4.657   5.015  1.00 20.00    -0.394 OA
HETATM   10  H22 UNL     1     -36.632   4.911   5.044  1.00 20.00     0.210 HD
ENDBRANCH   7   9
ENDBRANCH   3   7
TORSDOF 3
