REMARK  4 active torsions:
REMARK  status: ('A' for Active; 'I' for Inactive)
REMARK    1  A    between atoms: C6_6  and  C9_9 
REMARK    2  A    between atoms: C7_7  and  C8_8 
REMARK    3  A    between atoms: C8_8  and  C9_9 
REMARK    4  A    between atoms: C8_8  and  O11_11 
ROOT
HETATM    1  C1  UNL     1     -32.060   6.768   1.253  1.00 20.00     0.071 C 
HETATM    2  C5  UNL     1     -31.033   8.498   2.621  1.00 20.00     0.034 C 
HETATM    3  C9  UNL     1     -32.378   7.985   2.047  1.00 20.00     0.071 C 
HETATM    4  N10 UNL     1     -31.795   5.818   0.641  1.00 20.00    -0.196 NA
ENDROOT
BRANCH   3   5
HETATM    5  C6  UNL     1     -32.970   9.047   1.079  1.00 20.00     0.022 C 
HETATM    6  C2  UNL     1     -32.057   9.481  -0.062  1.00 20.00     0.007 C 
ENDBRANCH   3   5
BRANCH   3   7
HETATM    7  C8  UNL     1     -33.335   7.643   3.239  1.00 20.00     0.143 C 
BRANCH   7   8
HETATM    8  C7  UNL     1     -34.333   6.464   3.058  1.00 20.00     0.008 C 
HETATM    9  C3  UNL     1     -35.526   6.487   4.016  1.00 20.00     0.012 C 
HETATM   10  C4  UNL     1     -33.609   5.117   3.214  1.00 20.00     0.012 C 
ENDBRANCH   7   8
BRANCH   7  11
HETATM   11  O11 UNL     1     -34.038   8.832   3.623  1.00 20.00    -0.393 OA
HETATM   12  H28 UNL     1     -34.662   9.017   2.907  1.00 20.00     0.210 HD
ENDBRANCH   7  11
ENDBRANCH   3   7
TORSDOF 4
