REMARK  4 active torsions:
REMARK  status: ('A' for Active; 'I' for Inactive)
REMARK    1  A    between atoms: C5_5  and  C7_7 
REMARK    2  A    between atoms: C6_6  and  C8_8 
REMARK    3  A    between atoms: C7_7  and  C8_8 
REMARK    4  A    between atoms: C8_8  and  O10_10 
ROOT
HETATM    1  C1  UNL     1     -32.076   7.956   1.934  1.00 20.00     0.067 C 
HETATM    2  C7  UNL     1     -32.970   6.972   2.593  1.00 20.00     0.126 C 
HETATM    3  N9  UNL     1     -31.379   8.725   1.414  1.00 20.00    -0.197 NA
ENDROOT
BRANCH   2   4
HETATM    4  C5  UNL     1     -32.248   5.614   2.727  1.00 20.00     0.018 C 
HETATM    5  C2  UNL     1     -31.742   5.075   1.391  1.00 20.00     0.006 C 
ENDBRANCH   2   4
BRANCH   2   6
HETATM    6  C8  UNL     1     -33.511   7.536   3.951  1.00 20.00     0.070 C 
HETATM    7  C4  UNL     1     -34.228   8.884   3.790  1.00 20.00     0.047 C 
BRANCH   6   8
HETATM    8  C6  UNL     1     -34.431   6.503   4.653  1.00 20.00     0.034 C 
HETATM    9  C3  UNL     1     -35.734   6.200   3.918  1.00 20.00     0.008 C 
ENDBRANCH   6   8
BRANCH   6  10
HETATM   10  O10 UNL     1     -32.384   7.762   4.814  1.00 20.00    -0.389 OA
HETATM   11  H25 UNL     1     -32.750   8.086   5.648  1.00 20.00     0.210 HD
ENDBRANCH   6  10
ENDBRANCH   2   6
TORSDOF 4
