REMARK  4 active torsions:
REMARK  status: ('A' for Active; 'I' for Inactive)
REMARK    1  A    between atoms: C5_5  and  C7_7 
REMARK    2  A    between atoms: C6_6  and  C8_8 
REMARK    3  A    between atoms: C7_7  and  C8_8 
REMARK    4  A    between atoms: C8_8  and  O10_10 
ROOT
HETATM    1  C1  UNL     1     -33.334   7.852   4.549  1.00 20.00     0.067 C 
HETATM    2  C7  UNL     1     -33.600   7.443   3.146  1.00 20.00     0.126 C 
HETATM    3  N9  UNL     1     -33.130   8.174   5.645  1.00 20.00    -0.197 NA
ENDROOT
BRANCH   2   4
HETATM    4  C5  UNL     1     -33.661   5.904   3.051  1.00 20.00     0.018 C 
HETATM    5  C2  UNL     1     -34.688   5.289   3.998  1.00 20.00     0.006 C 
ENDBRANCH   2   4
BRANCH   2   6
HETATM    6  C8  UNL     1     -32.562   8.099   2.172  1.00 20.00     0.070 C 
HETATM    7  C4  UNL     1     -31.482   8.903   2.909  1.00 20.00     0.047 C 
BRANCH   6   8
HETATM    8  C6  UNL     1     -33.276   8.977   1.111  1.00 20.00     0.034 C 
HETATM    9  C3  UNL     1     -32.362   9.543   0.027  1.00 20.00     0.008 C 
ENDBRANCH   6   8
BRANCH   6  10
HETATM   10  O10 UNL     1     -31.889   7.041   1.471  1.00 20.00    -0.389 OA
HETATM   11  H25 UNL     1     -31.275   7.475   0.863  1.00 20.00     0.210 HD
ENDBRANCH   6  10
ENDBRANCH   2   6
TORSDOF 4
