REMARK  4 active torsions:
REMARK  status: ('A' for Active; 'I' for Inactive)
REMARK    1  A    between atoms: C4_4  and  C9_9 
REMARK    2  A    between atoms: C7_7  and  C8_8 
REMARK    3  A    between atoms: C8_8  and  C9_9 
REMARK    4  A    between atoms: C9_9  and  O11_11 
ROOT
HETATM    1  C1  UNL     1     -32.916   6.227   1.909  1.00 20.00     0.067 C 
HETATM    2  C8  UNL     1     -33.474   7.528   2.351  1.00 20.00     0.126 C 
HETATM    3  N10 UNL     1     -32.484   5.206   1.564  1.00 20.00    -0.197 NA
ENDROOT
BRANCH   2   4
HETATM    4  C7  UNL     1     -33.906   7.412   3.833  1.00 20.00     0.018 C 
HETATM    5  C5  UNL     1     -34.912   6.290   4.077  1.00 20.00     0.006 C 
ENDBRANCH   2   4
BRANCH   2   6
HETATM    6  C9  UNL     1     -32.454   8.688   2.098  1.00 20.00     0.074 C 
HETATM    7  C6  UNL     1     -32.096   9.395   3.393  1.00 20.00     0.047 C 
BRANCH   6   8
HETATM    8  C4  UNL     1     -33.005   9.732   1.109  1.00 20.00     0.021 A 
HETATM    9  C2  UNL     1     -32.064  10.542   0.260  1.00 20.00     0.008 A 
HETATM   10  C3  UNL     1     -32.928   9.486  -0.373  1.00 20.00     0.008 A 
ENDBRANCH   6   8
BRANCH   6  11
HETATM   11  O11 UNL     1     -31.256   8.138   1.541  1.00 20.00    -0.388 OA
HETATM   12  H26 UNL     1     -30.645   8.881   1.427  1.00 20.00     0.210 HD
ENDBRANCH   6  11
ENDBRANCH   2   6
TORSDOF 4
