REMARK  3 active torsions:
REMARK  status: ('A' for Active; 'I' for Inactive)
REMARK    1  A    between atoms: C5_5  and  C6_6 
REMARK    2  A    between atoms: C6_6  and  C7_7 
REMARK    3  A    between atoms: C6_6  and  O9_9 
ROOT
HETATM    1  C1  UNL     1     -33.469   7.819   3.364  1.00 20.00     0.071 C 
HETATM    2  C3  UNL     1     -32.383   6.836   1.399  1.00 20.00     0.033 C 
HETATM    3  C4  UNL     1     -31.215   8.581   2.745  1.00 20.00     0.033 C 
HETATM    4  C7  UNL     1     -32.588   8.132   2.212  1.00 20.00     0.067 C 
HETATM    5  N8  UNL     1     -34.157   7.573   4.265  1.00 20.00    -0.196 NA
ENDROOT
BRANCH   4   6
HETATM    6  C6  UNL     1     -33.225   9.238   1.315  1.00 20.00     0.139 C 
BRANCH   6   7
HETATM    7  C5  UNL     1     -32.376   9.657   0.101  1.00 20.00     0.029 C 
HETATM    8  C2  UNL     1     -33.038  10.767  -0.710  1.00 20.00     0.007 C 
ENDBRANCH   6   7
BRANCH   6   9
HETATM    9  O9  UNL     1     -33.492  10.412   2.088  1.00 20.00    -0.394 OA
HETATM   10  H22 UNL     1     -32.630  10.762   2.356  1.00 20.00     0.210 HD
ENDBRANCH   6   9
ENDBRANCH   4   6
TORSDOF 3
