REMARK  4 active torsions:
REMARK  status: ('A' for Active; 'I' for Inactive)
REMARK    1  A    between atoms: C4_4  and  C5_5 
REMARK    2  A    between atoms: C5_5  and  C7_7 
REMARK    3  A    between atoms: C6_6  and  C7_7 
REMARK    4  A    between atoms: C7_7  and  O9_9 
ROOT
HETATM    1  C1  UNL     1     -32.393   6.657   1.821  1.00 20.00     0.066 C 
HETATM    2  C3  UNL     1     -31.051   8.624   2.422  1.00 20.00     0.028 C 
HETATM    3  C6  UNL     1     -32.440   7.981   2.476  1.00 20.00     0.117 C 
HETATM    4  N8  UNL     1     -32.357   5.618   1.306  1.00 20.00    -0.197 NA
ENDROOT
BRANCH   3   5
HETATM    5  C7  UNL     1     -32.956   7.893   3.929  1.00 20.00     0.135 C 
BRANCH   5   6
HETATM    6  C5  UNL     1     -34.489   7.805   4.011  1.00 20.00     0.033 C 
BRANCH   6   7
HETATM    7  C4  UNL     1     -35.012   6.391   3.740  1.00 20.00    -0.002 C 
HETATM    8  C2  UNL     1     -34.429   5.385   4.722  1.00 20.00     0.005 C 
ENDBRANCH   6   7
ENDBRANCH   5   6
BRANCH   5   9
HETATM    9  O9  UNL     1     -32.486   9.018   4.670  1.00 20.00    -0.394 OA
HETATM   10  H22 UNL     1     -32.771   8.883   5.586  1.00 20.00     0.210 HD
ENDBRANCH   5   9
ENDBRANCH   3   5
TORSDOF 4
