REMARK  3 active torsions:
REMARK  status: ('A' for Active; 'I' for Inactive)
REMARK    1  A    between atoms: C6_6  and  C7_7 
REMARK    2  A    between atoms: C7_7  and  C8_8 
REMARK    3  A    between atoms: C8_8  and  O10_10 
ROOT
HETATM    1  C1  UNL     1     -33.535   4.512   3.626  1.00 20.00     0.072 C 
HETATM    2  C3  UNL     1     -34.083   5.305   1.380  1.00 20.00     0.034 C 
HETATM    3  C7  UNL     1     -33.595   5.741   2.782  1.00 20.00     0.075 C 
HETATM    4  N9  UNL     1     -33.490   3.555   4.280  1.00 20.00    -0.196 NA
ENDROOT
BRANCH   3   5
HETATM    5  C6  UNL     1     -32.160   6.344   2.687  1.00 20.00     0.023 C 
HETATM    6  C2  UNL     1     -32.029   7.619   1.854  1.00 20.00     0.007 C 
ENDBRANCH   3   5
BRANCH   3   7
HETATM    7  C8  UNL     1     -34.613   6.769   3.433  1.00 20.00     0.071 C 
HETATM    8  C4  UNL     1     -35.750   6.085   4.212  1.00 20.00     0.047 C 
HETATM    9  C5  UNL     1     -35.249   7.738   2.419  1.00 20.00     0.047 C 
BRANCH   7  10
HETATM   10  O10 UNL     1     -33.924   7.569   4.409  1.00 20.00    -0.389 OA
HETATM   11  H25 UNL     1     -34.579   8.191   4.750  1.00 20.00     0.210 HD
ENDBRANCH   7  10
ENDBRANCH   3   7
TORSDOF 3
