REMARK  3 active torsions:
REMARK  status: ('A' for Active; 'I' for Inactive)
REMARK    1  A    between atoms: C3_3  and  C11_11 
REMARK    2  A    between atoms: C8_8  and  N12_12 
REMARK    3  A    between atoms: C11_11  and  N12_12 
ROOT
HETATM    1  C1  UNL     1     -33.649   4.034   3.849  1.00 20.00     0.127 C 
HETATM    2  C4  UNL     1     -34.724   5.057   4.141  1.00 20.00     0.080 C 
HETATM    3  C5  UNL     1     -32.897   4.196   2.546  1.00 20.00     0.080 C 
HETATM    4  C6  UNL     1     -34.186   6.471   3.954  1.00 20.00     0.040 C 
HETATM    5  C7  UNL     1     -32.395   5.627   2.390  1.00 20.00     0.040 C 
HETATM    6  C8  UNL     1     -33.529   6.631   2.584  1.00 20.00     0.189 C 
HETATM    7  O13 UNL     1     -33.467   3.062   4.581  1.00 20.00    -0.298 OA
ENDROOT
BRANCH   6   8
HETATM    8  N12 UNL     1     -32.975   8.007   2.477  1.00 20.00    -0.067 N 
HETATM    9  C10 UNL     1     -32.404   8.502   3.782  1.00 20.00     0.270 C 
HETATM   10  H33 UNL     1     -33.756   8.643   2.245  1.00 20.00     0.280 HD
BRANCH   8  11
HETATM   11  C11 UNL     1     -31.976   8.142   1.355  1.00 20.00     0.268 C 
BRANCH  11  12
HETATM   12  C3  UNL     1     -31.802   9.553   0.870  1.00 20.00    -0.068 C 
HETATM   13  C2  UNL     1     -30.882  10.370   1.405  1.00 20.00     0.015 C 
HETATM   14  C9  UNL     1     -32.682   9.997  -0.263  1.00 20.00     0.044 C 
ENDBRANCH  11  12
ENDBRANCH   8  11
ENDBRANCH   6   8
TORSDOF 3
