REMARK  0 active torsions:
REMARK  status: ('A' for Active; 'I' for Inactive)
ROOT
HETATM    1  C1  UNL     1     -33.063   6.097   1.913  1.00 20.00    -0.058 C 
HETATM    2  C2  UNL     1     -32.617   7.429   2.323  1.00 20.00    -0.061 C 
HETATM    3  C3  UNL     1     -34.858   6.166   3.657  1.00 20.00    -0.085 C 
HETATM    4  C4  UNL     1     -32.251   5.209   1.317  1.00 20.00     0.020 C 
HETATM    5  C5  UNL     1     -31.949   8.260   1.507  1.00 20.00     0.019 C 
HETATM    6  C6  UNL     1     -35.441   5.327   4.525  1.00 20.00     0.014 C 
HETATM    7  C7  UNL     1     -34.501   5.762   2.247  1.00 20.00     0.071 C 
HETATM    8  C8  UNL     1     -32.998   7.826   3.732  1.00 20.00     0.042 C 
HETATM    9  C9  UNL     1     -34.483   7.581   4.021  1.00 20.00     0.038 C 
ENDROOT
TORSDOF 0
