REMARK  1 active torsions:
REMARK  status: ('A' for Active; 'I' for Inactive)
REMARK    1  A    between atoms: C6_6  and  C10_10 
ROOT
HETATM    1  C1  UNL     1     -31.191   8.897   1.437  1.00 20.00    -0.025 A 
HETATM    2  C2  UNL     1     -31.446   8.141   2.518  1.00 20.00    -0.020 A 
HETATM    3  C3  UNL     1     -32.857   6.324   1.364  1.00 20.00     0.020 A 
HETATM    4  C4  UNL     1     -32.300   8.729   0.419  1.00 20.00     0.009 A 
HETATM    5  C5  UNL     1     -33.270   7.742   1.062  1.00 20.00     0.006 A 
HETATM    6  C6  UNL     1     -32.715   7.383   2.433  1.00 20.00    -0.015 A 
HETATM    7  C7  UNL     1     -32.973  10.062   0.115  1.00 20.00     0.014 C 
ENDROOT
BRANCH   6   8
HETATM    8  C10 UNL     1     -33.626   7.371   3.618  1.00 20.00    -0.010 C 
HETATM    9  C8  UNL     1     -34.059   8.792   4.017  1.00 20.00     0.010 C 
HETATM   10  C9  UNL     1     -34.875   6.509   3.366  1.00 20.00     0.010 C 
ENDBRANCH   6   8
TORSDOF 1
