REMARK  1 active torsions:
REMARK  status: ('A' for Active; 'I' for Inactive)
REMARK    1  A    between atoms: C6_6  and  C10_10 
ROOT
HETATM    1  C1  UNL     1     -32.472   5.480   1.531  1.00 20.00    -0.025 A 
HETATM    2  C2  UNL     1     -31.645   6.447   1.101  1.00 20.00    -0.020 A 
HETATM    3  C3  UNL     1     -32.322   8.299   2.753  1.00 20.00     0.020 A 
HETATM    4  C4  UNL     1     -33.706   6.102   2.151  1.00 20.00     0.009 A 
HETATM    5  C5  UNL     1     -33.473   7.606   2.064  1.00 20.00     0.006 A 
HETATM    6  C6  UNL     1     -32.154   7.818   1.333  1.00 20.00    -0.015 A 
HETATM    7  C7  UNL     1     -33.944   5.637   3.580  1.00 20.00     0.014 C 
ENDROOT
BRANCH   6   8
HETATM    8  C10 UNL     1     -32.079   8.811   0.217  1.00 20.00    -0.010 C 
HETATM    9  C8  UNL     1     -32.844   8.327  -1.027  1.00 20.00     0.010 C 
HETATM   10  C9  UNL     1     -32.617  10.188   0.643  1.00 20.00     0.010 C 
ENDBRANCH   6   8
TORSDOF 1
