REMARK  2 active torsions:
REMARK  status: ('A' for Active; 'I' for Inactive)
REMARK    1  A    between atoms: C2_2  and  C10_10 
REMARK    2  A    between atoms: C7_7  and  C10_10 
ROOT
HETATM    1  C3  UNL     1     -32.532   5.765   1.305  1.00 20.00     0.002 C 
HETATM    2  C4  UNL     1     -31.691   6.934   1.817  1.00 20.00     0.005 C 
HETATM    3  C5  UNL     1     -33.428   5.192   2.400  1.00 20.00     0.016 C 
HETATM    4  C6  UNL     1     -33.450   7.440   3.562  1.00 20.00     0.020 C 
HETATM    5  C7  UNL     1     -32.528   8.035   2.486  1.00 20.00    -0.010 C 
HETATM    6  C8  UNL     1     -34.289   6.278   3.036  1.00 20.00     0.058 C 
HETATM    7 BR11 UNL     1     -35.311   5.503   4.514  1.00 20.00    -0.091 Br
ENDROOT
BRANCH   5   8
HETATM    8  C10 UNL     1     -33.315   8.850   1.456  1.00 20.00     0.037 C 
BRANCH   8   9
HETATM    9  C2  UNL     1     -32.425   9.480   0.416  1.00 20.00    -0.093 C 
HETATM   10  C1  UNL     1     -32.549   9.178  -0.886  1.00 20.00     0.014 C 
HETATM   11  C9  UNL     1     -31.367  10.427   0.902  1.00 20.00     0.042 C 
ENDBRANCH   8   9
ENDBRANCH   5   8
TORSDOF 2
