REMARK  3 active torsions:
REMARK  status: ('A' for Active; 'I' for Inactive)
REMARK    1  A    between atoms: C2_2  and  C7_7 
REMARK    2  A    between atoms: C5_5  and  C7_7 
REMARK    3  A    between atoms: C7_7  and  O8_8 
ROOT
HETATM    1  C7  UNL     1     -33.423   7.782   3.237  1.00 20.00     0.150 C 
ENDROOT
BRANCH   1   2
HETATM    2  C2  UNL     1     -32.534   7.789   2.013  1.00 20.00    -0.064 C 
HETATM    3  C1  UNL     1     -32.477   8.859   1.204  1.00 20.00     0.016 C 
HETATM    4  C6  UNL     1     -31.708   6.564   1.732  1.00 20.00     0.045 C 
ENDBRANCH   1   2
BRANCH   1   5
HETATM    5  C5  UNL     1     -34.446   6.652   3.216  1.00 20.00     0.019 A 
HETATM    6  C3  UNL     1     -34.254   5.440   4.086  1.00 20.00     0.008 A 
HETATM    7  C4  UNL     1     -35.346   6.425   4.399  1.00 20.00     0.008 A 
ENDBRANCH   1   5
BRANCH   1   8
HETATM    8  O8  UNL     1     -32.609   7.661   4.402  1.00 20.00    -0.391 OA
HETATM    9  H20 UNL     1     -33.213   7.661   5.160  1.00 20.00     0.210 HD
ENDBRANCH   1   8
TORSDOF 3
