REMARK  3 active torsions:
REMARK  status: ('A' for Active; 'I' for Inactive)
REMARK    1  A    between atoms: C7_7  and  C8_8 
REMARK    2  A    between atoms: C7_7  and  C9_9 
REMARK    3  A    between atoms: C8_8  and  N10_10 
ROOT
HETATM    1  C1  UNL     1     -33.338   7.521   3.514  1.00 20.00     0.239 C 
HETATM    2  C2  UNL     1     -32.974   5.655   1.973  1.00 20.00     0.239 C 
HETATM    3  C3  UNL     1     -34.148   6.317   3.980  1.00 20.00     0.012 C 
HETATM    4  C4  UNL     1     -33.349   5.160   3.368  1.00 20.00     0.012 C 
HETATM    5  C5  UNL     1     -35.605   6.404   3.524  1.00 20.00     0.012 C 
HETATM    6  C6  UNL     1     -34.049   3.810   3.344  1.00 20.00     0.012 C 
HETATM    7  N10 UNL     1     -32.942   7.168   2.095  1.00 20.00    -0.070 N 
HETATM    8  H30 UNL     1     -33.681   7.535   1.481  1.00 20.00     0.279 HD
ENDROOT
BRANCH   7   9
HETATM    9  C8  UNL     1     -31.658   7.795   1.655  1.00 20.00     0.236 C 
BRANCH   9  10
HETATM   10  C7  UNL     1     -31.755   9.317   1.712  1.00 20.00     0.043 C 
BRANCH  10  11
HETATM   11  C9  UNL     1     -32.801   9.949   0.798  1.00 20.00     0.116 C 
HETATM   12 CL11 UNL     1     -32.480   9.617  -0.919  1.00 20.00    -0.130 Cl
ENDBRANCH  10  11
ENDBRANCH   9  10
ENDBRANCH   7   9
TORSDOF 3
