REMARK  3 active torsions:
REMARK  status: ('A' for Active; 'I' for Inactive)
REMARK    1  A    between atoms: C2_2  and  C10_10 
REMARK    2  A    between atoms: C5_5  and  C10_10 
REMARK    3  A    between atoms: C7_7  and  O11_11 
ROOT
HETATM    1  C3  UNL     1     -33.294   5.834   0.912  1.00 20.00     0.008 C 
HETATM    2  C4  UNL     1     -32.748   4.784   1.879  1.00 20.00     0.032 C 
HETATM    3  C5  UNL     1     -33.522   7.089   1.759  1.00 20.00    -0.004 C 
HETATM    4  C6  UNL     1     -34.033   6.483   3.075  1.00 20.00     0.015 C 
HETATM    5  C7  UNL     1     -33.143   5.250   3.283  1.00 20.00     0.122 C 
HETATM    6  C9  UNL     1     -34.037   7.423   4.272  1.00 20.00     0.013 C 
ENDROOT
BRANCH   3   7
HETATM    7  C10 UNL     1     -32.246   7.921   1.883  1.00 20.00     0.038 C 
BRANCH   7   8
HETATM    8  C2  UNL     1     -31.999   8.798   0.679  1.00 20.00    -0.093 C 
HETATM    9  C1  UNL     1     -31.262   8.373  -0.359  1.00 20.00     0.014 C 
HETATM   10  C8  UNL     1     -32.586  10.180   0.708  1.00 20.00     0.042 C 
ENDBRANCH   7   8
ENDBRANCH   3   7
BRANCH   5  11
HETATM   11  O11 UNL     1     -33.847   4.222   3.962  1.00 20.00    -0.395 OA
HETATM   12  H29 UNL     1     -33.245   3.464   4.011  1.00 20.00     0.210 HD
ENDBRANCH   5  11
TORSDOF 3
