REMARK  3 active torsions:
REMARK  status: ('A' for Active; 'I' for Inactive)
REMARK    1  A    between atoms: C2_2  and  C10_10 
REMARK    2  A    between atoms: C5_5  and  C10_10 
REMARK    3  A    between atoms: C7_7  and  O11_11 
ROOT
HETATM    1  C3  UNL     1     -32.844   6.299   1.143  1.00 20.00     0.008 C 
HETATM    2  C4  UNL     1     -33.819   5.786   2.204  1.00 20.00     0.032 C 
HETATM    3  C5  UNL     1     -31.954   7.318   1.859  1.00 20.00    -0.004 C 
HETATM    4  C6  UNL     1     -32.911   7.932   2.887  1.00 20.00     0.015 C 
HETATM    5  C7  UNL     1     -33.645   6.699   3.419  1.00 20.00     0.122 C 
HETATM    6  C9  UNL     1     -32.206   8.716   3.986  1.00 20.00     0.013 C 
ENDROOT
BRANCH   3   7
HETATM    7  C10 UNL     1     -31.340   8.328   0.902  1.00 20.00     0.038 C 
BRANCH   7   8
HETATM    8  C2  UNL     1     -32.376   9.119   0.142  1.00 20.00    -0.093 C 
HETATM    9  C1  UNL     1     -32.830   8.714  -1.054  1.00 20.00     0.014 C 
HETATM   10  C8  UNL     1     -32.853  10.399   0.767  1.00 20.00     0.042 C 
ENDBRANCH   7   8
ENDBRANCH   3   7
BRANCH   5  11
HETATM   11  O11 UNL     1     -34.907   7.036   3.967  1.00 20.00    -0.395 OA
HETATM   12  H29 UNL     1     -35.335   6.203   4.229  1.00 20.00     0.210 HD
ENDBRANCH   5  11
TORSDOF 3
