REMARK  3 active torsions:
REMARK  status: ('A' for Active; 'I' for Inactive)
REMARK    1  A    between atoms: C2_2  and  C9_9 
REMARK    2  A    between atoms: C6_6  and  C9_9 
REMARK    3  A    between atoms: C9_9  and  N10_10 
ROOT
HETATM    1  C9  UNL     1     -33.670   5.768   3.405  1.00 20.00     0.254 C 
ENDROOT
BRANCH   1   2
HETATM    2  C2  UNL     1     -34.714   6.558   4.173  1.00 20.00    -0.060 C 
HETATM    3  C1  UNL     1     -34.452   7.038   5.400  1.00 20.00     0.016 C 
HETATM    4  C7  UNL     1     -36.057   6.788   3.534  1.00 20.00     0.044 C 
ENDBRANCH   1   2
BRANCH   1   5
HETATM    5  C6  UNL     1     -33.282   6.448   2.106  1.00 20.00     0.049 C 
HETATM    6  C3  UNL     1     -32.206   5.726   1.324  1.00 20.00     0.035 C 
HETATM    7  C4  UNL     1     -31.700   6.824   0.412  1.00 20.00     0.168 C 
HETATM    8  O11 UNL     1     -31.849   8.059   1.128  1.00 20.00    -0.391 OA
HETATM    9  C5  UNL     1     -32.646   7.815   2.297  1.00 20.00     0.174 C 
ENDBRANCH   1   5
BRANCH   1  10
HETATM   10  N10 UNL     1     -34.104   4.395   3.128  1.00 20.00     0.088 N 
HETATM   11  C8  UNL     1     -33.925   3.556   4.302  1.00 20.00     0.307 C 
HETATM   12  H28 UNL     1     -33.552   4.027   2.358  1.00 20.00     0.316 HD
ENDBRANCH   1  10
TORSDOF 3
