REMARK  0 active torsions:
REMARK  status: ('A' for Active; 'I' for Inactive)
ROOT
HETATM    1  C1  UNL     1     -34.269   5.083   2.951  1.00 20.00     0.063 A 
HETATM    2  C2  UNL     1     -34.738   7.014   4.365  1.00 20.00     0.098 A 
HETATM    3  C3  UNL     1     -32.992   7.106   2.762  1.00 20.00     0.055 A 
HETATM    4  C4  UNL     1     -33.249   5.804   2.351  1.00 20.00    -0.037 A 
HETATM    5  C5  UNL     1     -35.015   5.696   3.964  1.00 20.00     0.175 A 
HETATM    6  C6  UNL     1     -33.712   7.738   3.759  1.00 20.00     0.134 A 
HETATM    7  C7  UNL     1     -31.884   7.621   1.974  1.00 20.00     0.163 A 
HETATM    8  C8  UNL     1     -32.336   5.349   1.260  1.00 20.00     0.047 A 
HETATM    9  C9  UNL     1     -31.421   6.560   1.005  1.00 20.00     0.088 A 
HETATM   10  O10 UNL     1     -35.963   5.047   4.533  1.00 20.00    -0.288 OA
HETATM   11  O11 UNL     1     -31.417   8.739   2.093  1.00 20.00    -0.292 OA
HETATM   12  F12 UNL     1     -33.443   8.994   4.134  1.00 20.00    -0.205 F 
ENDROOT
TORSDOF 0
