REMARK  2 active torsions:
REMARK  status: ('A' for Active; 'I' for Inactive)
REMARK    1  A    between atoms: C3_3  and  C11_11 
REMARK    2  A    between atoms: C9_9  and  C11_11 
ROOT
HETATM    1  C1  UNL     1     -34.401   6.353   3.707  1.00 20.00     0.127 C 
HETATM    2  C4  UNL     1     -33.793   4.977   3.489  1.00 20.00     0.078 C 
HETATM    3  C5  UNL     1     -33.580   7.575   3.355  1.00 20.00     0.083 C 
HETATM    4  C6  UNL     1     -32.476   4.973   2.721  1.00 20.00     0.007 C 
HETATM    5  C7  UNL     1     -32.594   5.410   1.260  1.00 20.00     0.001 C 
HETATM    6  C8  UNL     1     -33.573   6.548   0.969  1.00 20.00     0.005 C 
HETATM    7  C9  UNL     1     -33.447   7.808   1.843  1.00 20.00    -0.004 C 
HETATM    8  O12 UNL     1     -35.533   6.467   4.181  1.00 20.00    -0.298 OA
ENDROOT
BRANCH   7   9
HETATM    9  C11 UNL     1     -32.153   8.568   1.541  1.00 20.00     0.037 C 
BRANCH   9  10
HETATM   10  C3  UNL     1     -32.024   8.922   0.085  1.00 20.00    -0.093 C 
HETATM   11  C2  UNL     1     -30.986   8.492  -0.649  1.00 20.00     0.014 C 
HETATM   12  C10 UNL     1     -33.080   9.814  -0.502  1.00 20.00     0.042 C 
ENDBRANCH   9  10
ENDBRANCH   7   9
TORSDOF 2
