REMARK  4 active torsions:
REMARK  status: ('A' for Active; 'I' for Inactive)
REMARK    1  A    between atoms: C2_2  and  C7_7 
REMARK    2  A    between atoms: C6_6  and  C7_7 
REMARK    3  A    between atoms: C6_6  and  S9_9 
REMARK    4  A    between atoms: C7_7  and  N8_8 
ROOT
HETATM    1  C7  UNL     1     -33.745   6.790   3.125  1.00 20.00     0.257 C 
ENDROOT
BRANCH   1   2
HETATM    2  C2  UNL     1     -34.736   5.806   3.731  1.00 20.00    -0.060 C 
HETATM    3  C1  UNL     1     -36.035   6.124   3.859  1.00 20.00     0.016 C 
HETATM    4  C3  UNL     1     -34.230   4.464   4.188  1.00 20.00     0.044 C 
ENDBRANCH   1   2
BRANCH   1   5
HETATM    5  C6  UNL     1     -33.018   6.266   1.872  1.00 20.00     0.113 C 
BRANCH   5   6
HETATM    6  S9  UNL     1     -31.492   7.192   1.508  1.00 20.00    -0.171 SA
HETATM    7  C5  UNL     1     -32.233   8.821   1.259  1.00 20.00     0.089 C 
ENDBRANCH   5   6
ENDBRANCH   1   5
BRANCH   1   8
HETATM    8  N8  UNL     1     -32.735   7.191   4.116  1.00 20.00     0.088 N 
HETATM    9  C4  UNL     1     -33.273   8.203   5.006  1.00 20.00     0.307 C 
HETATM   10  H24 UNL     1     -31.929   7.560   3.622  1.00 20.00     0.316 HD
ENDBRANCH   1   8
TORSDOF 4
