REMARK  5 active torsions:
REMARK  status: ('A' for Active; 'I' for Inactive)
REMARK    1  A    between atoms: C2_2  and  C5_5 
REMARK    2  A    between atoms: C5_5  and  C7_7 
REMARK    3  A    between atoms: C6_6  and  C9_9 
REMARK    4  A    between atoms: C7_7  and  C8_8 
REMARK    5  A    between atoms: C8_8  and  C9_9 
ROOT
HETATM    1  C7  UNL     1     -32.642   6.988   1.873  1.00 20.00     0.006 C 
ENDROOT
BRANCH   1   2
HETATM    2  C5  UNL     1     -33.334   8.187   1.211  1.00 20.00     0.033 C 
BRANCH   2   3
HETATM    3  C2  UNL     1     -32.414   9.085   0.418  1.00 20.00    -0.093 C 
HETATM    4  C1  UNL     1     -31.138   9.283   0.786  1.00 20.00     0.014 C 
HETATM    5  C3  UNL     1     -32.997   9.777  -0.781  1.00 20.00     0.042 C 
ENDBRANCH   2   3
ENDBRANCH   1   2
BRANCH   1   6
HETATM    6  C8  UNL     1     -33.623   6.051   2.591  1.00 20.00     0.020 C 
BRANCH   6   7
HETATM    7  C9  UNL     1     -34.427   6.747   3.703  1.00 20.00     0.082 C 
HETATM    8 CL10 UNL     1     -33.316   7.452   4.920  1.00 20.00    -0.125 Cl
BRANCH   7   9
HETATM    9  C6  UNL     1     -35.395   5.758   4.371  1.00 20.00     0.016 C 
HETATM   10  C4  UNL     1     -34.701   4.556   5.000  1.00 20.00     0.006 C 
ENDBRANCH   7   9
ENDBRANCH   6   7
ENDBRANCH   1   6
TORSDOF 5
