REMARK  3 active torsions:
REMARK  status: ('A' for Active; 'I' for Inactive)
REMARK    1  A    between atoms: C2_2  and  C9_9 
REMARK    2  A    between atoms: C3_3  and  C5_5 
REMARK    3  A    between atoms: C3_3  and  C9_9 
ROOT
HETATM    1  C3  UNL     1     -32.554   7.061   1.765  1.00 20.00     0.135 C 
HETATM    2  O10 UNL     1     -32.425   5.886   1.422  1.00 20.00    -0.297 OA
ENDROOT
BRANCH   1   3
HETATM    3  C5  UNL     1     -33.665   7.477   2.694  1.00 20.00     0.060 A 
HETATM    4  C4  UNL     1     -33.350   7.613   4.141  1.00 20.00     0.017 A 
HETATM    5  C6  UNL     1     -34.184   6.456   3.658  1.00 20.00    -0.007 A 
HETATM    6  C8  UNL     1     -35.645   6.411   3.948  1.00 20.00     0.011 C 
ENDBRANCH   1   3
BRANCH   1   7
HETATM    7  C9  UNL     1     -31.654   8.179   1.258  1.00 20.00     0.111 C 
BRANCH   7   8
HETATM    8  C2  UNL     1     -32.417   9.186   0.440  1.00 20.00    -0.086 C 
HETATM    9  C1  UNL     1     -32.478  10.479   0.794  1.00 20.00     0.014 C 
HETATM   10  C7  UNL     1     -33.079   8.681  -0.810  1.00 20.00     0.043 C 
ENDBRANCH   7   8
ENDBRANCH   1   7
TORSDOF 3
