REMARK  2 active torsions:
REMARK  status: ('A' for Active; 'I' for Inactive)
REMARK    1  A    between atoms: C1_1  and  C7_7 
REMARK    2  A    between atoms: C7_7  and  O11_11 
ROOT
HETATM    1  C3  UNL     1     -34.396   6.756   3.345  1.00 20.00     0.029 C 
HETATM    2  C4  UNL     1     -33.133   7.572   3.608  1.00 20.00     0.046 C 
HETATM    3  C5  UNL     1     -34.062   5.502   2.548  1.00 20.00     0.167 C 
HETATM    4  C6  UNL     1     -32.143   6.491   1.567  1.00 20.00     0.209 C 
HETATM    5  C7  UNL     1     -32.332   7.814   2.320  1.00 20.00     0.097 C 
HETATM    6  O10 UNL     1     -33.390   5.834   1.334  1.00 20.00    -0.388 OA
ENDROOT
BRANCH   5   7
HETATM    7  C1  UNL     1     -32.996   8.837   1.444  1.00 20.00     0.015 C 
HETATM    8  C2  UNL     1     -32.579   9.294   0.248  1.00 20.00    -0.088 C 
HETATM    9  C8  UNL     1     -33.367  10.329  -0.507  1.00 20.00     0.042 C 
HETATM   10  C9  UNL     1     -31.322   8.830  -0.431  1.00 20.00     0.042 C 
ENDBRANCH   5   7
BRANCH   5  11
HETATM   11  O11 UNL     1     -31.050   8.341   2.661  1.00 20.00    -0.384 OA
HETATM   12  H27 UNL     1     -30.624   7.679   3.226  1.00 20.00     0.211 HD
ENDBRANCH   5  11
TORSDOF 2
