REMARK  3 active torsions:
REMARK  status: ('A' for Active; 'I' for Inactive)
REMARK    1  A    between atoms: C1_1  and  C7_7 
REMARK    2  A    between atoms: C1_1  and  C8_8 
REMARK    3  A    between atoms: C8_8  and  O10_10 
ROOT
HETATM    1  C1  UNL     1     -33.207   6.596   2.095  1.00 20.00     0.163 C 
HETATM    2  O9  UNL     1     -32.967   5.709   1.271  1.00 20.00    -0.294 OA
ENDROOT
BRANCH   1   3
HETATM    3  C7  UNL     1     -34.072   6.302   3.320  1.00 20.00     0.050 C 
HETATM    4  C2  UNL     1     -35.532   6.602   2.999  1.00 20.00     0.017 C 
HETATM    5  C3  UNL     1     -33.883   4.850   3.745  1.00 20.00     0.017 C 
ENDBRANCH   1   3
BRANCH   1   6
HETATM    6  C8  UNL     1     -32.651   8.015   1.920  1.00 20.00     0.113 C 
HETATM    7  C4  UNL     1     -31.126   8.001   1.890  1.00 20.00     0.054 C 
HETATM    8  C5  UNL     1     -33.187   8.963   2.988  1.00 20.00     0.054 C 
BRANCH   6   9
HETATM    9  O10 UNL     1     -33.086   8.487   0.646  1.00 20.00    -0.378 OA
HETATM   10  C6  UNL     1     -32.615   9.802   0.395  1.00 20.00     0.203 C 
ENDBRANCH   6   9
ENDBRANCH   1   6
TORSDOF 3
