REMARK  2 active torsions:
REMARK  status: ('A' for Active; 'I' for Inactive)
REMARK    1  A    between atoms: C2_2  and  C7_7 
REMARK    2  A    between atoms: C7_7  and  O11_11 
ROOT
HETATM    1  C3  UNL     1     -32.655   6.415   1.484  1.00 20.00     0.073 C 
HETATM    2  C4  UNL     1     -34.077   8.201   2.533  1.00 20.00     0.073 C 
HETATM    3  C5  UNL     1     -32.923   5.541   2.714  1.00 20.00     0.275 C 
HETATM    4  C6  UNL     1     -34.295   7.265   3.726  1.00 20.00     0.275 C 
HETATM    5  C7  UNL     1     -32.758   7.904   1.818  1.00 20.00     0.083 C 
HETATM    6  C9  UNL     1     -34.493   4.976   4.451  1.00 20.00     0.309 C 
HETATM    7  N10 UNL     1     -34.227   5.856   3.313  1.00 20.00     0.084 N 
ENDROOT
BRANCH   5   8
HETATM    8  C2  UNL     1     -32.651   8.732   0.571  1.00 20.00    -0.059 C 
HETATM    9  C1  UNL     1     -32.487   8.176  -0.638  1.00 20.00     0.017 C 
HETATM   10  C8  UNL     1     -32.737  10.219   0.755  1.00 20.00     0.046 C 
ENDBRANCH   5   8
BRANCH   5  11
HETATM   11  O11 UNL     1     -31.655   8.270   2.636  1.00 20.00    -0.385 OA
HETATM   12  H28 UNL     1     -30.859   8.067   2.124  1.00 20.00     0.211 HD
ENDBRANCH   5  11
TORSDOF 2
