REMARK  2 active torsions:
REMARK  status: ('A' for Active; 'I' for Inactive)
REMARK    1  A    between atoms: C7_7  and  C8_8 
REMARK    2  A    between atoms: C7_7  and  N9_9 
ROOT
HETATM    1  C1  UNL     1     -32.603   6.606   2.111  1.00 20.00     0.277 C 
HETATM    2  C2  UNL     1     -32.954   8.666   3.160  1.00 20.00     0.277 C 
HETATM    3  C3  UNL     1     -33.051   6.302   3.549  1.00 20.00     0.015 C 
HETATM    4  C4  UNL     1     -33.612   7.635   4.069  1.00 20.00     0.015 C 
HETATM    5  C5  UNL     1     -34.077   5.178   3.622  1.00 20.00     0.012 C 
HETATM    6  C6  UNL     1     -33.328   7.879   5.543  1.00 20.00     0.012 C 
HETATM    7  N9  UNL     1     -33.029   7.988   1.866  1.00 20.00     0.090 N 
ENDROOT
BRANCH   7   8
HETATM    8  C7  UNL     1     -32.234   8.647   0.842  1.00 20.00     0.287 C 
BRANCH   8   9
HETATM    9  C8  UNL     1     -32.727  10.051   0.533  1.00 20.00     0.144 C 
HETATM   10 CL10 UNL     1     -31.734  10.824  -0.728  1.00 20.00    -0.129 Cl
ENDBRANCH   8   9
ENDBRANCH   7   8
TORSDOF 2
