REMARK  3 active torsions:
REMARK  status: ('A' for Active; 'I' for Inactive)
REMARK    1  A    between atoms: C2_2  and  C9_9 
REMARK    2  A    between atoms: C3_3  and  C5_5 
REMARK    3  A    between atoms: C3_3  and  C9_9 
ROOT
HETATM    1  C3  UNL     1     -32.911   6.671   1.691  1.00 20.00     0.135 C 
HETATM    2  O10 UNL     1     -32.778   5.621   1.063  1.00 20.00    -0.297 OA
ENDROOT
BRANCH   1   3
HETATM    3  C5  UNL     1     -34.166   6.947   2.479  1.00 20.00     0.060 A 
HETATM    4  C4  UNL     1     -34.022   7.350   3.905  1.00 20.00     0.017 A 
HETATM    5  C6  UNL     1     -34.584   6.002   3.552  1.00 20.00    -0.007 A 
HETATM    6  C8  UNL     1     -33.828   4.765   3.901  1.00 20.00     0.011 C 
ENDBRANCH   1   3
BRANCH   1   7
HETATM    7  C9  UNL     1     -31.866   7.778   1.692  1.00 20.00     0.111 C 
BRANCH   7   8
HETATM    8  C2  UNL     1     -32.035   8.711   0.524  1.00 20.00    -0.086 C 
HETATM    9  C1  UNL     1     -32.808   9.806   0.605  1.00 20.00     0.014 C 
HETATM   10  C7  UNL     1     -31.274   8.377  -0.726  1.00 20.00     0.043 C 
ENDBRANCH   7   8
ENDBRANCH   1   7
TORSDOF 3
