REMARK  2 active torsions:
REMARK  status: ('A' for Active; 'I' for Inactive)
REMARK    1  A    between atoms: C2_2  and  C9_9 
REMARK    2  A    between atoms: C6_6  and  C9_9 
ROOT
HETATM    1  C3  UNL     1     -31.457   6.062   1.660  1.00 20.00     0.006 C 
HETATM    2  C4  UNL     1     -31.632   7.115   0.572  1.00 20.00     0.016 C 
HETATM    3  C5  UNL     1     -32.092   8.080   2.784  1.00 20.00     0.020 C 
HETATM    4  C6  UNL     1     -32.322   6.565   2.814  1.00 20.00    -0.010 C 
HETATM    5  C7  UNL     1     -31.785   8.432   1.328  1.00 20.00     0.058 C 
HETATM    6 BR10 UNL     1     -33.214   9.503   0.553  1.00 20.00    -0.091 Br
ENDROOT
BRANCH   4   7
HETATM    7  C9  UNL     1     -33.794   6.198   2.643  1.00 20.00     0.037 C 
BRANCH   7   8
HETATM    8  C2  UNL     1     -34.577   6.298   3.930  1.00 20.00    -0.093 C 
HETATM    9  C1  UNL     1     -35.229   5.241   4.439  1.00 20.00     0.014 C 
HETATM   10  C8  UNL     1     -34.623   7.642   4.599  1.00 20.00     0.042 C 
ENDBRANCH   7   8
ENDBRANCH   4   7
TORSDOF 2
