REMARK  2 active torsions:
REMARK  status: ('A' for Active; 'I' for Inactive)
REMARK    1  A    between atoms: C2_2  and  C9_9 
REMARK    2  A    between atoms: C6_6  and  C9_9 
ROOT
HETATM    1  C3  UNL     1     -31.606   6.813   0.774  1.00 20.00     0.006 C 
HETATM    2  C4  UNL     1     -31.414   8.059  -0.096  1.00 20.00     0.020 C 
HETATM    3  C5  UNL     1     -33.035   8.611   1.564  1.00 20.00     0.025 C 
HETATM    4  C6  UNL     1     -32.462   7.254   1.972  1.00 20.00    -0.009 C 
HETATM    5  C7  UNL     1     -31.889   9.218   0.769  1.00 20.00     0.082 C 
HETATM    6 CL10 UNL     1     -32.400  10.613  -0.191  1.00 20.00    -0.125 Cl
ENDROOT
BRANCH   4   7
HETATM    7  C9  UNL     1     -33.534   6.244   2.347  1.00 20.00     0.037 C 
BRANCH   7   8
HETATM    8  C2  UNL     1     -34.381   6.698   3.511  1.00 20.00    -0.093 C 
HETATM    9  C1  UNL     1     -33.878   7.471   4.485  1.00 20.00     0.014 C 
HETATM   10  C8  UNL     1     -35.803   6.215   3.551  1.00 20.00     0.042 C 
ENDBRANCH   7   8
ENDBRANCH   4   7
TORSDOF 2
