REMARK  2 active torsions:
REMARK  status: ('A' for Active; 'I' for Inactive)
REMARK    1  A    between atoms: C7_7  and  C8_8 
REMARK    2  A    between atoms: C7_7  and  N9_9 
ROOT
HETATM    1  C1  UNL     1     -33.215   6.184   2.049  1.00 20.00     0.277 C 
HETATM    2  C2  UNL     1     -32.698   8.219   3.021  1.00 20.00     0.277 C 
HETATM    3  C3  UNL     1     -34.252   6.352   3.164  1.00 20.00     0.015 C 
HETATM    4  C4  UNL     1     -33.909   7.713   3.811  1.00 20.00     0.015 C 
HETATM    5  C5  UNL     1     -34.303   5.138   4.081  1.00 20.00     0.012 C 
HETATM    6  C6  UNL     1     -33.656   7.727   5.312  1.00 20.00     0.012 C 
HETATM    7  N9  UNL     1     -32.864   7.567   1.722  1.00 20.00     0.090 N 
ENDROOT
BRANCH   7   8
HETATM    8  C7  UNL     1     -31.664   7.653   0.902  1.00 20.00     0.287 C 
BRANCH   8   9
HETATM    9  C8  UNL     1     -31.338   9.080   0.492  1.00 20.00     0.144 C 
HETATM   10 CL10 UNL     1     -32.666   9.802  -0.449  1.00 20.00    -0.129 Cl
ENDBRANCH   8   9
ENDBRANCH   7   8
TORSDOF 2
