REMARK  3 active torsions:
REMARK  status: ('A' for Active; 'I' for Inactive)
REMARK    1  A    between atoms: C2_2  and  C9_9 
REMARK    2  A    between atoms: C7_7  and  C9_9 
REMARK    3  A    between atoms: C9_9  and  O11_11 
ROOT
HETATM    1  C3  UNL     1     -33.119  10.065   1.932  1.00 20.00     0.034 C 
HETATM    2  C4  UNL     1     -32.356   8.144   0.511  1.00 20.00     0.034 C 
HETATM    3  C5  UNL     1     -33.216  10.883   0.650  1.00 20.00     0.168 C 
HETATM    4  C6  UNL     1     -32.496   9.069  -0.692  1.00 20.00     0.168 C 
HETATM    5  C7  UNL     1     -32.078   8.950   1.785  1.00 20.00     0.023 C 
HETATM    6  O10 UNL     1     -33.514  10.044  -0.464  1.00 20.00    -0.391 OA
ENDROOT
BRANCH   5   7
HETATM    7  C9  UNL     1     -32.062   8.046   3.015  1.00 20.00     0.150 C 
BRANCH   7   8
HETATM    8  C2  UNL     1     -33.384   7.351   3.246  1.00 20.00    -0.064 C 
HETATM    9  C1  UNL     1     -33.629   6.139   2.722  1.00 20.00     0.016 C 
HETATM   10  C8  UNL     1     -34.415   8.050   4.088  1.00 20.00     0.045 C 
ENDBRANCH   7   8
BRANCH   7  11
HETATM   11  O11 UNL     1     -31.737   8.824   4.165  1.00 20.00    -0.391 OA
HETATM   12  H27 UNL     1     -31.681   8.205   4.909  1.00 20.00     0.210 HD
ENDBRANCH   7  11
ENDBRANCH   5   7
TORSDOF 3
