REMARK  4 active torsions:
REMARK  status: ('A' for Active; 'I' for Inactive)
REMARK    1  A    between atoms: C2_2  and  C8_8 
REMARK    2  A    between atoms: C6_6  and  C9_9 
REMARK    3  A    between atoms: C8_8  and  C9_9 
REMARK    4  A    between atoms: C9_9  and  O11_11 
ROOT
HETATM    1  C9  UNL     1     -32.541   7.052   1.552  1.00 20.00     0.151 C 
ENDROOT
BRANCH   1   2
HETATM    2  C6  UNL     1     -31.855   8.307   1.046  1.00 20.00     0.150 C 
HETATM    3  C4  UNL     1     -31.346   8.187  -0.380  1.00 20.00     0.036 C 
HETATM    4  C3  UNL     1     -31.341   9.630  -0.819  1.00 20.00     0.029 C 
HETATM    5  C5  UNL     1     -32.592  10.164  -0.154  1.00 20.00     0.168 C 
HETATM    6  O10 UNL     1     -32.782   9.405   1.050  1.00 20.00    -0.383 OA
ENDBRANCH   1   2
BRANCH   1   7
HETATM    7  C8  UNL     1     -32.961   7.212   3.019  1.00 20.00     0.067 C 
BRANCH   7   8
HETATM    8  C2  UNL     1     -34.016   6.219   3.457  1.00 20.00    -0.091 C 
HETATM    9  C1  UNL     1     -35.195   6.623   3.956  1.00 20.00     0.014 C 
HETATM   10  C7  UNL     1     -33.704   4.762   3.270  1.00 20.00     0.042 C 
ENDBRANCH   7   8
ENDBRANCH   1   7
BRANCH   1  11
HETATM   11  O11 UNL     1     -31.609   5.979   1.425  1.00 20.00    -0.393 OA
HETATM   12  H27 UNL     1     -31.388   5.916   0.484  1.00 20.00     0.210 HD
ENDBRANCH   1  11
TORSDOF 4
