REMARK  2 active torsions:
REMARK  status: ('A' for Active; 'I' for Inactive)
REMARK    1  A    between atoms: C2_2  and  C3_3 
REMARK    2  A    between atoms: C3_3  and  C5_5 
ROOT
HETATM    1  C3  UNL     1     -32.509   8.064   1.332  1.00 20.00     0.159 C 
HETATM    2  O9  UNL     1     -32.214   8.312   2.502  1.00 20.00    -0.292 OA
ENDROOT
BRANCH   1   3
HETATM    3  C2  UNL     1     -32.423   9.143   0.293  1.00 20.00    -0.025 C 
HETATM    4  C1  UNL     1     -32.146   8.860  -0.988  1.00 20.00     0.022 C 
HETATM    5  C7  UNL     1     -32.663  10.548   0.762  1.00 20.00     0.051 C 
ENDBRANCH   1   3
BRANCH   1   6
HETATM    6  C5  UNL     1     -32.957   6.679   0.936  1.00 20.00     0.064 A 
HETATM    7  C4  UNL     1     -32.316   5.518   1.610  1.00 20.00     0.018 A 
HETATM    8  C6  UNL     1     -33.751   5.862   1.893  1.00 20.00    -0.006 A 
HETATM    9  C8  UNL     1     -34.151   6.338   3.248  1.00 20.00     0.011 C 
ENDBRANCH   1   6
TORSDOF 2
