REMARK  4 active torsions:
REMARK  status: ('A' for Active; 'I' for Inactive)
REMARK    1  A    between atoms: C2_2  and  C9_9 
REMARK    2  A    between atoms: C5_5  and  C9_9 
REMARK    3  A    between atoms: C8_8  and  C9_9 
REMARK    4  A    between atoms: C9_9  and  O10_10 
ROOT
HETATM    1  C9  UNL     1     -33.261   6.943   2.665  1.00 20.00     0.083 C 
ENDROOT
BRANCH   1   2
HETATM    2  C2  UNL     1     -34.088   7.161   3.941  1.00 20.00    -0.059 C 
HETATM    3  C1  UNL     1     -33.668   7.887   4.991  1.00 20.00     0.017 C 
HETATM    4  C6  UNL     1     -35.454   6.520   3.992  1.00 20.00     0.046 C 
ENDBRANCH   1   2
BRANCH   1   5
HETATM    5  C5  UNL     1     -32.305   8.064   2.284  1.00 20.00     0.024 A 
HETATM    6  C3  UNL     1     -32.374   8.688   0.918  1.00 20.00     0.008 A 
HETATM    7  C4  UNL     1     -32.812   9.470   2.125  1.00 20.00     0.008 A 
ENDBRANCH   1   5
BRANCH   1   8
HETATM    8  C8  UNL     1     -32.492   5.595   2.700  1.00 20.00     0.038 C 
HETATM    9  C7  UNL     1     -31.643   5.296   1.470  1.00 20.00     0.008 C 
ENDBRANCH   1   8
BRANCH   1  10
HETATM   10  O10 UNL     1     -34.187   6.824   1.567  1.00 20.00    -0.385 OA
HETATM   11  H26 UNL     1     -34.677   7.656   1.549  1.00 20.00     0.211 HD
ENDBRANCH   1  10
TORSDOF 4
