REMARK  2 active torsions:
REMARK  status: ('A' for Active; 'I' for Inactive)
REMARK    1  A    between atoms: C3_3  and  C6_6 
REMARK    2  A    between atoms: C6_6  and  O9_9 
ROOT
HETATM    1  C2  UNL     1     -31.129   7.546   1.453  1.00 20.00     0.045 A 
HETATM    2  C5  UNL     1     -32.387   8.123   0.858  1.00 20.00     0.019 A 
HETATM    3  C6  UNL     1     -32.468   7.195   2.050  1.00 20.00     0.066 A 
HETATM    4  C8  UNL     1     -32.670   9.581   0.975  1.00 20.00     0.013 C 
ENDROOT
BRANCH   3   5
HETATM    5  C3  UNL     1     -32.875   7.637   3.453  1.00 20.00     0.024 A 
HETATM    6  C1  UNL     1     -33.976   8.634   3.704  1.00 20.00     0.012 A 
HETATM    7  C4  UNL     1     -34.144   7.205   4.150  1.00 20.00    -0.011 A 
HETATM    8  C7  UNL     1     -35.148   6.326   3.487  1.00 20.00     0.010 C 
ENDBRANCH   3   5
BRANCH   3   9
HETATM    9  O9  UNL     1     -32.931   5.863   1.727  1.00 20.00    -0.389 OA
HETATM   10  H23 UNL     1     -32.259   5.268   2.078  1.00 20.00     0.210 HD
ENDBRANCH   3   9
TORSDOF 2
