REMARK  4 active torsions:
REMARK  status: ('A' for Active; 'I' for Inactive)
REMARK    1  A    between atoms: C3_3  and  C5_5 
REMARK    2  A    between atoms: C3_3  and  O8_8 
REMARK    3  A    between atoms: C5_5  and  C6_6 
REMARK    4  A    between atoms: C6_6  and  C7_7 
ROOT
HETATM    1  C1  UNL     1     -32.212   8.088   2.471  1.00 20.00     0.045 A 
HETATM    2  C2  UNL     1     -32.181   8.461   1.011  1.00 20.00     0.019 A 
HETATM    3  C3  UNL     1     -32.463   7.035   1.421  1.00 20.00     0.062 A 
HETATM    4  C4  UNL     1     -30.895   8.847   0.366  1.00 20.00     0.013 C 
ENDROOT
BRANCH   3   5
HETATM    5  C5  UNL     1     -33.832   6.468   1.250  1.00 20.00     0.047 C 
BRANCH   5   6
HETATM    6  C6  UNL     1     -34.157   5.426   2.322  1.00 20.00     0.120 C 
BRANCH   6   7
HETATM    7  C7  UNL     1     -34.134   6.014   3.716  1.00 20.00     0.388 C 
HETATM    8  F9  UNL     1     -32.909   6.489   4.029  1.00 20.00    -0.171 F 
HETATM    9  F10 UNL     1     -35.018   7.027   3.837  1.00 20.00    -0.171 F 
HETATM   10  F11 UNL     1     -34.457   5.076   4.632  1.00 20.00    -0.171 F 
ENDBRANCH   6   7
ENDBRANCH   5   6
ENDBRANCH   3   5
BRANCH   3  11
HETATM   11  O8  UNL     1     -31.410   6.074   1.234  1.00 20.00    -0.389 OA
HETATM   12  H22 UNL     1     -31.302   5.632   2.087  1.00 20.00     0.210 HD
ENDBRANCH   3  11
TORSDOF 4
