REMARK  3 active torsions:
REMARK  status: ('A' for Active; 'I' for Inactive)
REMARK    1  A    between atoms: C2_2  and  C6_6 
REMARK    2  A    between atoms: C3_3  and  C7_7 
REMARK    3  A    between atoms: C3_3  and  O8_8 
ROOT
HETATM    1  C1  UNL     1     -34.612   8.592   3.537  1.00 20.00     0.045 A 
HETATM    2  C2  UNL     1     -34.577   7.308   4.324  1.00 20.00     0.022 A 
HETATM    3  C3  UNL     1     -33.304   7.865   3.724  1.00 20.00     0.062 A 
ENDROOT
BRANCH   3   4
HETATM    4  C7  UNL     1     -32.630   7.230   2.553  1.00 20.00     0.034 C 
HETATM    5  C5  UNL     1     -32.281   8.218   1.471  1.00 20.00     0.008 C 
ENDBRANCH   3   4
BRANCH   3   6
HETATM    6  O8  UNL     1     -32.386   8.456   4.662  1.00 20.00    -0.389 OA
HETATM    7  H22 UNL     1     -32.850   8.471   5.509  1.00 20.00     0.210 HD
ENDBRANCH   3   6
BRANCH   2   8
HETATM    8  C6  UNL     1     -35.240   6.083   3.793  1.00 20.00     0.003 C 
HETATM    9  C4  UNL     1     -34.675   4.810   4.371  1.00 20.00     0.005 C 
ENDBRANCH   2   8
TORSDOF 3
