REMARK  3 active torsions:
REMARK  status: ('A' for Active; 'I' for Inactive)
REMARK    1  A    between atoms: C1_1  and  C8_8 
REMARK    2  A    between atoms: C1_1  and  C9_9 
REMARK    3  A    between atoms: C9_9  and  C10_10 
ROOT
HETATM    1  C4  UNL     1     -31.796   5.727   1.329  1.00 20.00     0.018 C 
HETATM    2  C9  UNL     1     -32.824   6.807   1.685  1.00 20.00     0.059 C 
ENDROOT
BRANCH   2   3
HETATM    3  C1  UNL     1     -32.105   8.164   1.672  1.00 20.00     0.134 C 
HETATM    4  O11 UNL     1     -30.932   8.274   2.033  1.00 20.00    -0.297 OA
BRANCH   3   5
HETATM    5  C8  UNL     1     -32.898   9.364   1.155  1.00 20.00     0.048 C 
HETATM    6  C2  UNL     1     -32.707   9.490  -0.352  1.00 20.00     0.017 C 
HETATM    7  C3  UNL     1     -32.476  10.646   1.868  1.00 20.00     0.017 C 
ENDBRANCH   3   5
ENDBRANCH   2   3
BRANCH   2   8
HETATM    8  C10 UNL     1     -33.621   6.553   3.007  1.00 20.00    -0.041 C 
HETATM    9  C5  UNL     1     -35.127   6.417   2.690  1.00 20.00     0.015 C 
HETATM   10  C6  UNL     1     -33.459   7.751   3.966  1.00 20.00     0.015 C 
HETATM   11  C7  UNL     1     -33.174   5.277   3.745  1.00 20.00     0.015 C 
ENDBRANCH   2   8
TORSDOF 3
