REMARK  2 active torsions:
REMARK  status: ('A' for Active; 'I' for Inactive)
REMARK    1  A    between atoms: C4_4  and  C7_7 
REMARK    2  A    between atoms: C7_7  and  C8_8 
ROOT
HETATM    1  C1  UNL     1     -33.714   5.641   3.066  1.00 20.00     0.034 C 
HETATM    2  C2  UNL     1     -34.831   6.000   4.024  1.00 20.00     0.168 C 
HETATM    3  C3  UNL     1     -33.755   7.964   3.383  1.00 20.00     0.173 C 
HETATM    4  C4  UNL     1     -33.549   6.929   2.291  1.00 20.00     0.026 C 
HETATM    5  O9  UNL     1     -34.705   7.402   4.301  1.00 20.00    -0.391 OA
ENDROOT
BRANCH   4   6
HETATM    6  C7  UNL     1     -32.220   7.056   1.571  1.00 20.00     0.067 C 
HETATM    7 BR10 UNL     1     -31.630   5.256   1.038  1.00 20.00    -0.090 Br
BRANCH   6   8
HETATM    8  C8  UNL     1     -32.196   8.002   0.354  1.00 20.00    -0.008 C 
HETATM    9  C5  UNL     1     -30.822   7.974  -0.326  1.00 20.00     0.011 C 
HETATM   10  C6  UNL     1     -32.577   9.429   0.676  1.00 20.00     0.011 C 
ENDBRANCH   6   8
ENDBRANCH   4   6
TORSDOF 2
