REMARK  3 active torsions:
REMARK  status: ('A' for Active; 'I' for Inactive)
REMARK    1  A    between atoms: C2_2  and  C6_6 
REMARK    2  A    between atoms: C3_3  and  C7_7 
REMARK    3  A    between atoms: C3_3  and  O8_8 
ROOT
HETATM    1  C1  UNL     1     -31.803   5.950   1.303  1.00 20.00     0.045 A 
HETATM    2  C2  UNL     1     -33.001   6.519   2.018  1.00 20.00     0.022 A 
HETATM    3  C3  UNL     1     -31.957   7.443   1.439  1.00 20.00     0.062 A 
ENDROOT
BRANCH   3   4
HETATM    4  C7  UNL     1     -32.277   8.269   0.238  1.00 20.00     0.034 C 
HETATM    5  C5  UNL     1     -32.395   9.739   0.551  1.00 20.00     0.008 C 
ENDBRANCH   3   4
BRANCH   3   6
HETATM    6  O8  UNL     1     -31.059   8.085   2.360  1.00 20.00    -0.389 OA
HETATM    7  H22 UNL     1     -30.169   7.900   2.032  1.00 20.00     0.210 HD
ENDBRANCH   3   6
BRANCH   2   8
HETATM    8  C6  UNL     1     -33.151   6.335   3.489  1.00 20.00     0.003 C 
HETATM    9  C4  UNL     1     -34.041   7.373   4.124  1.00 20.00     0.005 C 
ENDBRANCH   2   8
TORSDOF 3
