REMARK  4 active torsions:
REMARK  status: ('A' for Active; 'I' for Inactive)
REMARK    1  A    between atoms: C5_5  and  C8_8 
REMARK    2  A    between atoms: C6_6  and  C8_8 
REMARK    3  A    between atoms: C7_7  and  N9_9 
REMARK    4  A    between atoms: C8_8  and  N9_9 
ROOT
HETATM    1  C8  UNL     1     -33.096   6.782   2.370  1.00 20.00     0.237 C 
ENDROOT
BRANCH   1   2
HETATM    2  C5  UNL     1     -32.953   5.906   1.120  1.00 20.00     0.150 C 
HETATM    3 CL10 UNL     1     -31.369   5.083   1.084  1.00 20.00    -0.128 Cl
ENDBRANCH   1   2
BRANCH   1   4
HETATM    4  C6  UNL     1     -32.023   7.899   2.421  1.00 20.00     0.011 C 
HETATM    5  C1  UNL     1     -32.141   8.808   3.648  1.00 20.00     0.012 C 
HETATM    6  C2  UNL     1     -32.040   8.748   1.144  1.00 20.00     0.012 C 
ENDBRANCH   1   4
BRANCH   1   7
HETATM    7  N9  UNL     1     -33.079   5.971   3.568  1.00 20.00     0.093 N 
HETATM    8  H28 UNL     1     -32.382   5.228   3.472  1.00 20.00     0.316 HD
BRANCH   7   9
HETATM    9  C7  UNL     1     -34.383   5.363   3.816  1.00 20.00     0.213 C 
HETATM   10  C3  UNL     1     -35.306   6.400   4.441  1.00 20.00     0.042 C 
HETATM   11  C4  UNL     1     -34.199   4.155   4.722  1.00 20.00     0.042 C 
ENDBRANCH   7   9
ENDBRANCH   1   7
TORSDOF 4
