REMARK  5 active torsions:
REMARK  status: ('A' for Active; 'I' for Inactive)
REMARK    1  A    between atoms: C4_4  and  C7_7 
REMARK    2  A    between atoms: C5_5  and  C8_8 
REMARK    3  A    between atoms: C6_6  and  C7_7 
REMARK    4  A    between atoms: C6_6  and  O9_9 
REMARK    5  A    between atoms: C7_7  and  C8_8 
ROOT
HETATM    1  C7  UNL     1     -33.726   6.301   2.954  1.00 20.00     0.027 C 
ENDROOT
BRANCH   1   2
HETATM    2  C4  UNL     1     -34.945   6.931   3.665  1.00 20.00     0.004 C 
HETATM    3  C1  UNL     1     -35.922   5.903   4.221  1.00 20.00     0.005 C 
ENDBRANCH   1   2
BRANCH   1   4
HETATM    4  C6  UNL     1     -32.978   5.338   3.898  1.00 20.00     0.173 C 
BRANCH   4   5
HETATM    5  O9  UNL     1     -33.638   4.082   3.984  1.00 20.00    -0.396 OA
HETATM    6  C3  UNL     1     -32.988   3.214   4.902  1.00 20.00     0.201 C 
ENDBRANCH   4   5
ENDBRANCH   1   4
BRANCH   1   7
HETATM    7  C8  UNL     1     -32.767   7.361   2.336  1.00 20.00     0.088 C 
HETATM    8 CL10 UNL     1     -31.619   6.558   1.202  1.00 20.00    -0.125 Cl
BRANCH   7   9
HETATM    9  C5  UNL     1     -33.480   8.524   1.627  1.00 20.00     0.016 C 
HETATM   10  C2  UNL     1     -32.520   9.521   0.987  1.00 20.00     0.006 C 
ENDBRANCH   7   9
ENDBRANCH   1   7
TORSDOF 5
