REMARK  2 active torsions:
REMARK  status: ('A' for Active; 'I' for Inactive)
REMARK    1  A    between atoms: C6_6  and  C9_9 
REMARK    2  A    between atoms: C8_8  and  C9_9 
ROOT
HETATM    1  C1  UNL     1     -33.189   5.938   1.505  1.00 20.00     0.027 C 
HETATM    2  C2  UNL     1     -32.131   6.957   1.931  1.00 20.00     0.008 C 
HETATM    3  C3  UNL     1     -34.080   8.601   2.389  1.00 20.00     0.032 C 
HETATM    4  C4  UNL     1     -34.354   5.772   2.486  1.00 20.00     0.167 C 
HETATM    5  C5  UNL     1     -34.482   7.855   3.661  1.00 20.00     0.168 C 
HETATM    6  C6  UNL     1     -32.613   8.420   1.970  1.00 20.00     0.006 C 
HETATM    7  O10 UNL     1     -34.129   6.475   3.701  1.00 20.00    -0.391 OA
ENDROOT
BRANCH   6   8
HETATM    8  C9  UNL     1     -32.389   9.092   0.610  1.00 20.00     0.086 C 
HETATM    9 CL11 UNL     1     -30.662   8.926   0.213  1.00 20.00    -0.125 Cl
BRANCH   8  10
HETATM   10  C8  UNL     1     -32.829  10.548   0.660  1.00 20.00     0.016 C 
HETATM   11  C7  UNL     1     -32.644  11.256  -0.676  1.00 20.00     0.006 C 
ENDBRANCH   8  10
ENDBRANCH   6   8
TORSDOF 2
