REMARK  4 active torsions:
REMARK  status: ('A' for Active; 'I' for Inactive)
REMARK    1  A    between atoms: C6_6  and  C7_7 
REMARK    2  A    between atoms: C6_6  and  C9_9 
REMARK    3  A    between atoms: C8_8  and  C10_10 
REMARK    4  A    between atoms: C9_9  and  C10_10 
ROOT
HETATM    1  C5  UNL     1     -31.396   6.035   2.242  1.00 20.00     0.011 C 
HETATM    2  C9  UNL     1     -32.509   6.791   1.499  1.00 20.00     0.001 C 
ENDROOT
BRANCH   2   3
HETATM    3  C6  UNL     1     -32.277   8.321   1.533  1.00 20.00     0.009 C 
BRANCH   3   4
HETATM    4  C7  UNL     1     -33.061   9.145   0.488  1.00 20.00    -0.022 C 
HETATM    5  C1  UNL     1     -32.724   8.741  -0.948  1.00 20.00     0.009 C 
HETATM    6  C2  UNL     1     -32.767  10.636   0.684  1.00 20.00     0.009 C 
ENDBRANCH   3   4
ENDBRANCH   2   3
BRANCH   2   7
HETATM    7  C10 UNL     1     -33.918   6.380   2.029  1.00 20.00     0.089 C 
HETATM    8 CL11 UNL     1     -34.495   4.906   1.160  1.00 20.00    -0.124 Cl
BRANCH   7   9
HETATM    9  C8  UNL     1     -34.026   6.165   3.565  1.00 20.00    -0.004 C 
HETATM   10  C3  UNL     1     -35.436   5.743   3.997  1.00 20.00     0.011 C 
HETATM   11  C4  UNL     1     -33.645   7.433   4.346  1.00 20.00     0.011 C 
ENDBRANCH   7   9
ENDBRANCH   2   7
TORSDOF 4
