REMARK  2 active torsions:
REMARK  status: ('A' for Active; 'I' for Inactive)
REMARK    1  A    between atoms: C5_5  and  C7_7 
REMARK    2  A    between atoms: C7_7  and  O9_9 
ROOT
HETATM    1  C2  UNL     1     -30.795   7.594   1.891  1.00 20.00     0.045 A 
HETATM    2  C6  UNL     1     -31.626   7.876   0.666  1.00 20.00     0.019 A 
HETATM    3  C7  UNL     1     -32.135   6.938   1.728  1.00 20.00     0.066 A 
HETATM    4  C8  UNL     1     -32.200   9.232   0.443  1.00 20.00     0.013 C 
ENDROOT
BRANCH   3   5
HETATM    5  C5  UNL     1     -33.260   7.318   2.645  1.00 20.00     0.030 C 
HETATM    6  C1  UNL     1     -32.760   7.729   4.030  1.00 20.00     0.018 C 
HETATM    7  C3  UNL     1     -33.992   7.909   4.900  1.00 20.00     0.074 C 
HETATM    8  S10 UNL     1     -35.118   6.578   4.400  1.00 20.00    -0.169 SA
HETATM    9  C4  UNL     1     -34.226   6.158   2.876  1.00 20.00     0.081 C 
ENDBRANCH   3   5
BRANCH   3  10
HETATM   10  O9  UNL     1     -32.132   5.543   1.397  1.00 20.00    -0.389 OA
HETATM   11  H24 UNL     1     -31.662   5.468   0.555  1.00 20.00     0.210 HD
ENDBRANCH   3  10
TORSDOF 2
