REMARK  2 active torsions:
REMARK  status: ('A' for Active; 'I' for Inactive)
REMARK    1  A    between atoms: C4_4  and  C7_7 
REMARK    2  A    between atoms: C6_6  and  C7_7 
ROOT
HETATM    1  C1  UNL     1     -33.932   7.007   4.077  1.00 20.00     0.034 C 
HETATM    2  C2  UNL     1     -35.321   6.428   4.258  1.00 20.00     0.168 C 
HETATM    3  C3  UNL     1     -33.832   4.668   3.909  1.00 20.00     0.173 C 
HETATM    4  C4  UNL     1     -33.205   5.919   3.315  1.00 20.00     0.026 C 
HETATM    5  O8  UNL     1     -35.185   5.000   4.253  1.00 20.00    -0.391 OA
ENDROOT
BRANCH   4   6
HETATM    6  C7  UNL     1     -33.448   6.014   1.809  1.00 20.00     0.063 C 
HETATM    7 BR9  UNL     1     -32.592   4.468   0.956  1.00 20.00    -0.091 Br
BRANCH   6   8
HETATM    8  C6  UNL     1     -32.886   7.312   1.222  1.00 20.00     0.012 C 
HETATM    9  C5  UNL     1     -31.399   7.507   1.491  1.00 20.00     0.006 C 
ENDBRANCH   6   8
ENDBRANCH   4   6
TORSDOF 2
