REMARK  3 active torsions:
REMARK  status: ('A' for Active; 'I' for Inactive)
REMARK    1  A    between atoms: C3_3  and  C9_9 
REMARK    2  A    between atoms: C3_3  and  O10_10 
REMARK    3  A    between atoms: C8_8  and  C9_9 
ROOT
HETATM    1  C1  UNL     1     -35.427   5.907   3.654  1.00 20.00     0.046 A 
HETATM    2  C2  UNL     1     -34.382   5.140   4.422  1.00 20.00     0.019 A 
HETATM    3  C3  UNL     1     -33.980   6.321   3.566  1.00 20.00     0.068 A 
HETATM    4  C4  UNL     1     -34.055   3.735   4.049  1.00 20.00     0.013 C 
ENDROOT
BRANCH   3   5
HETATM    5  C9  UNL     1     -33.210   6.153   2.242  1.00 20.00    -0.017 C 
HETATM    6  C6  UNL     1     -32.015   5.217   2.487  1.00 20.00     0.018 C 
HETATM    7  C7  UNL     1     -34.151   5.512   1.208  1.00 20.00     0.018 C 
BRANCH   5   8
HETATM    8  C8  UNL     1     -32.737   7.554   1.776  1.00 20.00     0.007 C 
HETATM    9  C5  UNL     1     -31.951   7.589   0.471  1.00 20.00     0.006 C 
ENDBRANCH   5   8
ENDBRANCH   3   5
BRANCH   3  10
HETATM   10  O10 UNL     1     -33.625   7.515   4.287  1.00 20.00    -0.389 OA
HETATM   11  H28 UNL     1     -33.834   7.334   5.213  1.00 20.00     0.210 HD
ENDBRANCH   3  10
TORSDOF 3
