REMARK  2 active torsions:
REMARK  status: ('A' for Active; 'I' for Inactive)
REMARK    1  A    between atoms: C3_3  and  C7_7 
REMARK    2  A    between atoms: C3_3  and  O8_8 
ROOT
HETATM    1  C1  UNL     1     -31.850   7.334   3.297  1.00 20.00     0.045 A 
HETATM    2  C2  UNL     1     -32.552   8.334   2.415  1.00 20.00     0.019 A 
HETATM    3  C3  UNL     1     -33.168   6.977   2.657  1.00 20.00     0.065 A 
HETATM    4  C4  UNL     1     -31.971   8.703   1.094  1.00 20.00     0.013 C 
ENDROOT
BRANCH   3   5
HETATM    5  C7  UNL     1     -34.394   6.855   3.499  1.00 20.00     0.012 C 
HETATM    6  C5  UNL     1     -34.605   5.413   3.995  1.00 20.00     0.012 C 
HETATM    7  C6  UNL     1     -34.354   7.807   4.708  1.00 20.00     0.012 C 
ENDBRANCH   3   5
BRANCH   3   8
HETATM    8  O8  UNL     1     -33.106   6.023   1.584  1.00 20.00    -0.389 OA
HETATM    9  H22 UNL     1     -34.016   5.902   1.285  1.00 20.00     0.210 HD
ENDBRANCH   3   8
TORSDOF 2
