REMARK  2 active torsions:
REMARK  status: ('A' for Active; 'I' for Inactive)
REMARK    1  A    between atoms: C4_4  and  C7_7 
REMARK    2  A    between atoms: C7_7  and  C8_8 
ROOT
HETATM    1  C1  UNL     1     -33.247   7.615   3.497  1.00 20.00     0.034 C 
HETATM    2  C2  UNL     1     -34.449   7.009   4.190  1.00 20.00     0.168 C 
HETATM    3  C3  UNL     1     -33.479   5.374   2.843  1.00 20.00     0.173 C 
HETATM    4  C4  UNL     1     -33.125   6.736   2.272  1.00 20.00     0.026 C 
HETATM    5  O9  UNL     1     -34.444   5.608   3.881  1.00 20.00    -0.391 OA
ENDROOT
BRANCH   4   6
HETATM    6  C7  UNL     1     -31.763   6.784   1.605  1.00 20.00     0.067 C 
HETATM    7 BR10 UNL     1     -31.705   5.395   0.213  1.00 20.00    -0.090 Br
BRANCH   6   8
HETATM    8  C8  UNL     1     -31.347   8.145   1.013  1.00 20.00    -0.008 C 
HETATM    9  C5  UNL     1     -30.750   9.048   2.099  1.00 20.00     0.011 C 
HETATM   10  C6  UNL     1     -32.463   8.873   0.301  1.00 20.00     0.011 C 
ENDBRANCH   6   8
ENDBRANCH   4   6
TORSDOF 2
