REMARK  3 active torsions:
REMARK  status: ('A' for Active; 'I' for Inactive)
REMARK    1  A    between atoms: C2_2  and  C6_6 
REMARK    2  A    between atoms: C3_3  and  C7_7 
REMARK    3  A    between atoms: C3_3  and  O8_8 
ROOT
HETATM    1  C1  UNL     1     -31.300   8.065   1.850  1.00 20.00     0.045 A 
HETATM    2  C2  UNL     1     -32.487   8.198   0.932  1.00 20.00     0.022 A 
HETATM    3  C3  UNL     1     -32.588   7.354   2.184  1.00 20.00     0.062 A 
ENDROOT
BRANCH   3   4
HETATM    4  C7  UNL     1     -33.389   7.780   3.370  1.00 20.00     0.034 C 
HETATM    5  C5  UNL     1     -34.642   6.964   3.554  1.00 20.00     0.008 C 
ENDBRANCH   3   4
BRANCH   3   6
HETATM    6  O8  UNL     1     -32.592   5.931   1.971  1.00 20.00    -0.389 OA
HETATM    7  H22 UNL     1     -32.411   5.806   1.031  1.00 20.00     0.210 HD
ENDBRANCH   3   6
BRANCH   2   8
HETATM    8  C6  UNL     1     -33.186   9.507   0.793  1.00 20.00     0.003 C 
HETATM    9  C4  UNL     1     -32.513  10.433  -0.188  1.00 20.00     0.005 C 
ENDBRANCH   2   8
TORSDOF 3
