REMARK  3 active torsions:
REMARK  status: ('A' for Active; 'I' for Inactive)
REMARK    1  A    between atoms: C3_3  and  C6_6 
REMARK    2  A    between atoms: C3_3  and  O8_8 
REMARK    3  A    between atoms: C6_6  and  C7_7 
ROOT
HETATM    1  C1  UNL     1     -34.459   8.013   3.522  1.00 20.00     0.045 A 
HETATM    2  C2  UNL     1     -33.761   6.697   3.749  1.00 20.00     0.019 A 
HETATM    3  C3  UNL     1     -32.995   7.875   3.185  1.00 20.00     0.061 A 
HETATM    4  C4  UNL     1     -34.114   5.507   2.925  1.00 20.00     0.013 C 
ENDROOT
BRANCH   3   5
HETATM    5  C6  UNL     1     -32.549   7.928   1.762  1.00 20.00     0.038 C 
BRANCH   5   6
HETATM    6  C7  UNL     1     -32.491   9.365   1.218  1.00 20.00    -0.002 C 
HETATM    7  C5  UNL     1     -32.003   9.422  -0.221  1.00 20.00     0.005 C 
ENDBRANCH   5   6
ENDBRANCH   3   5
BRANCH   3   8
HETATM    8  O8  UNL     1     -32.080   8.510   4.096  1.00 20.00    -0.389 OA
HETATM    9  H22 UNL     1     -32.235   8.096   4.955  1.00 20.00     0.210 HD
ENDBRANCH   3   8
TORSDOF 3
