REMARK  3 active torsions:
REMARK  status: ('A' for Active; 'I' for Inactive)
REMARK    1  A    between atoms: C1_1  and  C7_7 
REMARK    2  A    between atoms: C1_1  and  C12_12 
REMARK    3  A    between atoms: C8_8  and  C13_13 
ROOT
HETATM    1  C2  UNL     1     -32.842   8.435   3.992  1.00 20.00     0.001 C 
HETATM    2  C3  UNL     1     -33.944   7.381   3.982  1.00 20.00     0.012 C 
HETATM    3  C4  UNL     1     -33.081   5.830   2.109  1.00 20.00     0.012 C 
HETATM    4  C5  UNL     1     -32.569   9.111   2.651  1.00 20.00     0.005 C 
HETATM    5  C6  UNL     1     -32.075   6.838   1.550  1.00 20.00     0.006 C 
HETATM    6  C7  UNL     1     -33.424   5.996   3.589  1.00 20.00     0.055 C 
HETATM    7  C8  UNL     1     -32.670   8.245   1.387  1.00 20.00    -0.011 C 
ENDROOT
BRANCH   6   8
HETATM    8  C1  UNL     1     -34.466   4.973   3.939  1.00 20.00     0.130 C 
HETATM    9  O14 UNL     1     -35.665   5.241   3.873  1.00 20.00    -0.298 OA
BRANCH   8  10
HETATM   10  C12 UNL     1     -33.949   3.614   4.372  1.00 20.00     0.074 C 
HETATM   11  C9  UNL     1     -33.048   3.692   5.591  1.00 20.00     0.013 C 
ENDBRANCH   8  10
ENDBRANCH   6   8
BRANCH   7  12
HETATM   12  C13 UNL     1     -31.988   8.977   0.224  1.00 20.00    -0.019 C 
HETATM   13  C10 UNL     1     -32.690  10.302  -0.052  1.00 20.00     0.010 C 
HETATM   14  C11 UNL     1     -30.511   9.200   0.531  1.00 20.00     0.010 C 
ENDBRANCH   7  12
TORSDOF 3
