REMARK  3 active torsions:
REMARK  status: ('A' for Active; 'I' for Inactive)
REMARK    1  A    between atoms: C5_5  and  C9_9 
REMARK    2  A    between atoms: C6_6  and  C11_11 
REMARK    3  A    between atoms: C10_10  and  C11_11 
ROOT
HETATM    1  C1  UNL     1     -32.792   8.295   3.006  1.00 20.00     0.005 C 
HETATM    2  C2  UNL     1     -32.446   6.942   0.902  1.00 20.00     0.005 C 
HETATM    3  C3  UNL     1     -33.138   7.018   3.770  1.00 20.00     0.006 C 
HETATM    4  C4  UNL     1     -32.791   5.665   1.666  1.00 20.00     0.006 C 
HETATM    5  C5  UNL     1     -31.853   8.014   1.826  1.00 20.00    -0.015 C 
HETATM    6  C6  UNL     1     -33.730   5.947   2.845  1.00 20.00     0.004 C 
ENDROOT
BRANCH   6   7
HETATM    7  C11 UNL     1     -34.021   4.664   3.622  1.00 20.00     0.086 C 
HETATM    8 CL12 UNL     1     -35.277   5.040   4.828  1.00 20.00    -0.125 Cl
BRANCH   7   9
HETATM    9  C10 UNL     1     -32.749   4.131   4.271  1.00 20.00     0.016 C 
HETATM   10  C8  UNL     1     -32.985   2.844   5.049  1.00 20.00     0.006 C 
ENDBRANCH   7   9
ENDBRANCH   6   7
BRANCH   5  11
HETATM   11  C9  UNL     1     -31.564   9.296   1.048  1.00 20.00     0.000 C 
HETATM   12  C7  UNL     1     -32.809   9.882   0.468  1.00 20.00     0.005 C 
ENDBRANCH   5  11
TORSDOF 3
