REMARK  2 active torsions:
REMARK  status: ('A' for Active; 'I' for Inactive)
REMARK    1  A    between atoms: C3_3  and  C6_6 
REMARK    2  A    between atoms: C6_6  and  O9_9 
ROOT
HETATM    1  C2  UNL     1     -33.844   6.401   1.157  1.00 20.00     0.045 A 
HETATM    2  C5  UNL     1     -33.426   6.398   2.605  1.00 20.00     0.019 A 
HETATM    3  C6  UNL     1     -32.454   6.846   1.535  1.00 20.00     0.066 A 
HETATM    4  C8  UNL     1     -34.039   7.360   3.563  1.00 20.00     0.013 C 
ENDROOT
BRANCH   3   5
HETATM    5  C3  UNL     1     -31.983   8.287   1.355  1.00 20.00     0.024 A 
HETATM    6  C1  UNL     1     -31.187   8.736   0.158  1.00 20.00     0.012 A 
HETATM    7  C4  UNL     1     -32.601   9.217   0.344  1.00 20.00    -0.011 A 
HETATM    8  C7  UNL     1     -32.869  10.640   0.696  1.00 20.00     0.010 C 
ENDBRANCH   3   5
BRANCH   3   9
HETATM    9  O9  UNL     1     -31.420   5.879   1.239  1.00 20.00    -0.389 OA
HETATM   10  H23 UNL     1     -31.463   5.743   0.286  1.00 20.00     0.210 HD
ENDBRANCH   3   9
TORSDOF 2
