REMARK  2 active torsions:
REMARK  status: ('A' for Active; 'I' for Inactive)
REMARK    1  A    between atoms: C6_6  and  C8_8 
REMARK    2  A    between atoms: C7_7  and  C9_9 
ROOT
HETATM    1  C1  UNL     1     -34.667   6.766   3.578  1.00 20.00     0.027 C 
HETATM    2  C4  UNL     1     -33.678   5.784   2.964  1.00 20.00     0.010 C 
HETATM    3  C5  UNL     1     -33.956   8.042   3.997  1.00 20.00     0.168 C 
HETATM    4  C7  UNL     1     -32.855   6.451   1.849  1.00 20.00     0.029 C 
HETATM    5  C8  UNL     1     -32.246   7.775   2.360  1.00 20.00     0.130 C 
HETATM    6  O10 UNL     1     -33.281   8.620   2.883  1.00 20.00    -0.385 OA
ENDROOT
BRANCH   5   7
HETATM    7  C6  UNL     1     -31.548   8.548   1.275  1.00 20.00     0.015 A 
HETATM    8  C2  UNL     1     -32.345   9.342   0.278  1.00 20.00     0.007 A 
HETATM    9  C3  UNL     1     -31.520  10.051   1.315  1.00 20.00     0.007 A 
ENDBRANCH   5   7
BRANCH   4  10
HETATM   10  C9  UNL     1     -31.799   5.472   1.334  1.00 20.00     0.121 C 
HETATM   11 CL11 UNL     1     -32.581   4.016   0.696  1.00 20.00    -0.130 Cl
ENDBRANCH   4  10
TORSDOF 2
