REMARK  2 active torsions:
REMARK  status: ('A' for Active; 'I' for Inactive)
REMARK    1  A    between atoms: C1_1  and  C7_7 
REMARK    2  A    between atoms: C2_2  and  C8_8 
ROOT
HETATM    1  C3  UNL     1     -34.796   7.313   3.558  1.00 20.00     0.035 C 
HETATM    2  C4  UNL     1     -33.444   5.391   2.681  1.00 20.00     0.035 C 
HETATM    3  C5  UNL     1     -35.169   6.422   4.737  1.00 20.00     0.168 C 
HETATM    4  C6  UNL     1     -33.891   4.606   3.908  1.00 20.00     0.168 C 
HETATM    5  C7  UNL     1     -33.454   6.886   2.976  1.00 20.00     0.012 C 
HETATM    6  O9  UNL     1     -35.175   5.047   4.351  1.00 20.00    -0.391 OA
ENDROOT
BRANCH   5   7
HETATM    7  C1  UNL     1     -33.244   7.630   1.671  1.00 20.00    -0.025 C 
HETATM    8  C2  UNL     1     -32.215   8.458   1.440  1.00 20.00    -0.020 C 
BRANCH   8   9
HETATM    9  C8  UNL     1     -32.024   9.196   0.160  1.00 20.00     0.112 C 
HETATM   10 BR10 UNL     1     -32.105  11.103   0.529  1.00 20.00    -0.092 Br
ENDBRANCH   8   9
ENDBRANCH   5   7
TORSDOF 2
