REMARK  4 active torsions:
REMARK  status: ('A' for Active; 'I' for Inactive)
REMARK    1  A    between atoms: C2_2  and  C8_8 
REMARK    2  A    between atoms: C3_3  and  C10_10 
REMARK    3  A    between atoms: C3_3  and  O11_11 
REMARK    4  A    between atoms: C9_9  and  C10_10 
ROOT
HETATM    1  C1  UNL     1     -33.788   6.688   0.810  1.00 20.00     0.046 A 
HETATM    2  C2  UNL     1     -32.559   7.263   1.464  1.00 20.00     0.023 A 
HETATM    3  C3  UNL     1     -33.479   6.352   2.247  1.00 20.00     0.069 A 
ENDROOT
BRANCH   3   4
HETATM    4  C10 UNL     1     -34.391   6.875   3.374  1.00 20.00    -0.017 C 
HETATM    5  C6  UNL     1     -35.523   7.702   2.742  1.00 20.00     0.018 C 
HETATM    6  C7  UNL     1     -34.996   5.669   4.112  1.00 20.00     0.018 C 
BRANCH   4   7
HETATM    7  C9  UNL     1     -33.531   7.742   4.329  1.00 20.00     0.007 C 
HETATM    8  C5  UNL     1     -34.267   8.352   5.516  1.00 20.00     0.006 C 
ENDBRANCH   4   7
ENDBRANCH   3   4
BRANCH   3   9
HETATM    9  O11 UNL     1     -32.978   5.024   2.486  1.00 20.00    -0.389 OA
HETATM   10  H31 UNL     1     -32.161   4.956   1.975  1.00 20.00     0.210 HD
ENDBRANCH   3   9
BRANCH   2  11
HETATM   11  C8  UNL     1     -32.464   8.725   1.733  1.00 20.00     0.003 C 
HETATM   12  C4  UNL     1     -32.012   9.518   0.533  1.00 20.00     0.005 C 
ENDBRANCH   2  11
TORSDOF 4
