REMARK  2 active torsions:
REMARK  status: ('A' for Active; 'I' for Inactive)
REMARK    1  A    between atoms: C4_4  and  C5_5 
REMARK    2  A    between atoms: C6_6  and  C7_7 
ROOT
HETATM    1  C1  UNL     1     -33.487   4.214   3.612  1.00 20.00     0.038 A 
HETATM    2  C2  UNL     1     -34.311   3.848   4.650  1.00 20.00     0.142 A 
HETATM    3  C3  UNL     1     -34.928   5.855   4.065  1.00 20.00     0.152 A 
HETATM    4  C4  UNL     1     -33.887   5.517   3.232  1.00 20.00    -0.011 A 
HETATM    5  O10 UNL     1     -35.193   4.843   4.933  1.00 20.00    -0.334 OA
ENDROOT
BRANCH   4   6
HETATM    6  C5  UNL     1     -33.331   6.367   2.172  1.00 20.00     0.023 C 
HETATM    7  C7  UNL     1     -32.771   7.575   2.358  1.00 20.00    -0.024 C 
HETATM    8  C8  UNL     1     -32.559   8.293   3.655  1.00 20.00     0.051 C 
BRANCH   7   9
HETATM    9  C6  UNL     1     -32.289   8.257   1.126  1.00 20.00     0.265 C 
HETATM   10  O9  UNL     1     -31.761   9.363   1.138  1.00 20.00    -0.302 OA
ENDBRANCH   7   9
ENDBRANCH   4   6
TORSDOF 2
