REMARK  2 active torsions:
REMARK  status: ('A' for Active; 'I' for Inactive)
REMARK    1  A    between atoms: C1_1  and  C6_6 
REMARK    2  A    between atoms: C2_2  and  C7_7 
ROOT
HETATM    1  C3  UNL     1     -32.988   5.084   3.659  1.00 20.00     0.037 C 
HETATM    2  C4  UNL     1     -34.213   4.357   4.168  1.00 20.00     0.168 C 
HETATM    3  C5  UNL     1     -34.872   6.481   3.475  1.00 20.00     0.176 C 
HETATM    4  C6  UNL     1     -33.600   6.109   2.726  1.00 20.00     0.034 C 
HETATM    5  O8  UNL     1     -35.261   5.331   4.242  1.00 20.00    -0.390 OA
ENDROOT
BRANCH   4   6
HETATM    6  C1  UNL     1     -32.709   7.267   2.438  1.00 20.00    -0.023 C 
HETATM    7  C2  UNL     1     -32.325   7.626   1.204  1.00 20.00    -0.015 C 
BRANCH   7   8
HETATM    8  C7  UNL     1     -31.440   8.794   0.920  1.00 20.00     0.141 C 
HETATM    9 CL9  UNL     1     -32.286   9.957  -0.123  1.00 20.00    -0.126 Cl
ENDBRANCH   7   8
ENDBRANCH   4   6
TORSDOF 2
