REMARK  3 active torsions:
REMARK  status: ('A' for Active; 'I' for Inactive)
REMARK    1  A    between atoms: C1_1  and  C6_6 
REMARK    2  A    between atoms: C2_2  and  C3_3 
REMARK    3  A    between atoms: C3_3  and  C8_8 
ROOT
HETATM    1  C1  UNL     1     -32.549   8.619   1.880  1.00 20.00    -0.012 C 
HETATM    2  C3  UNL     1     -32.698   7.312   2.162  1.00 20.00    -0.024 C 
ENDROOT
BRANCH   2   3
HETATM    3  C2  UNL     1     -33.313   6.987   3.477  1.00 20.00     0.265 C 
HETATM    4  O9  UNL     1     -34.438   7.350   3.799  1.00 20.00    -0.302 OA
ENDBRANCH   2   3
BRANCH   2   5
HETATM    5  C8  UNL     1     -32.262   6.176   1.279  1.00 20.00     0.037 C 
HETATM    6  C7  UNL     1     -32.577   4.819   1.894  1.00 20.00     0.010 C 
ENDBRANCH   2   5
BRANCH   1   7
HETATM    7  C6  UNL     1     -31.963   9.203   0.657  1.00 20.00     0.009 A 
HETATM    8  C4  UNL     1     -32.851   9.396  -0.530  1.00 20.00     0.009 A 
HETATM    9  C5  UNL     1     -32.382  10.581   0.260  1.00 20.00     0.009 A 
ENDBRANCH   1   7
TORSDOF 3
