REMARK  4 active torsions:
REMARK  status: ('A' for Active; 'I' for Inactive)
REMARK    1  A    between atoms: C1_1  and  C9_9 
REMARK    2  A    between atoms: C2_2  and  C7_7 
REMARK    3  A    between atoms: C2_2  and  C8_8 
REMARK    4  A    between atoms: C8_8  and  O10_10 
ROOT
HETATM    1  C1  UNL     1     -33.649   6.797   2.405  1.00 20.00    -0.013 C 
HETATM    2  C2  UNL     1     -34.259   6.816   3.610  1.00 20.00    -0.060 C 
ENDROOT
BRANCH   2   3
HETATM    3  C7  UNL     1     -33.618   7.204   4.923  1.00 20.00     0.031 C 
HETATM    4  C3  UNL     1     -33.745   8.692   5.223  1.00 20.00     0.010 C 
ENDBRANCH   2   3
BRANCH   2   5
HETATM    5  C8  UNL     1     -35.724   6.444   3.695  1.00 20.00     0.198 C 
BRANCH   5   6
HETATM    6  O10 UNL     1     -35.885   5.319   4.549  1.00 20.00    -0.397 OA
HETATM    7  H28 UNL     1     -36.834   5.119   4.573  1.00 20.00     0.209 HD
ENDBRANCH   5   6
ENDBRANCH   2   5
BRANCH   1   8
HETATM    8  C9  UNL     1     -32.211   7.100   1.994  1.00 20.00    -0.033 C 
HETATM    9  C4  UNL     1     -32.170   8.273   1.001  1.00 20.00     0.018 C 
HETATM   10  C5  UNL     1     -31.283   7.376   3.190  1.00 20.00     0.018 C 
HETATM   11  C6  UNL     1     -31.650   5.852   1.269  1.00 20.00     0.018 C 
ENDBRANCH   1   8
TORSDOF 4
