REMARK  2 active torsions:
REMARK  status: ('A' for Active; 'I' for Inactive)
REMARK    1  A    between atoms: C4_4  and  C8_8 
REMARK    2  A    between atoms: C5_5  and  C9_9 
ROOT
HETATM    1  C1  UNL     1     -31.774   6.098   0.462  1.00 20.00     0.027 C 
HETATM    2  C2  UNL     1     -31.229   7.138   1.438  1.00 20.00     0.010 C 
HETATM    3  C3  UNL     1     -32.764   5.171   1.153  1.00 20.00     0.168 C 
HETATM    4  C4  UNL     1     -32.356   7.845   2.209  1.00 20.00     0.029 C 
HETATM    5  C5  UNL     1     -33.292   6.779   2.818  1.00 20.00     0.130 C 
HETATM    6  O10 UNL     1     -33.800   5.912   1.796  1.00 20.00    -0.385 OA
ENDROOT
BRANCH   5   7
HETATM    7  C9  UNL     1     -34.485   7.371   3.560  1.00 20.00     0.007 C 
HETATM    8  C6  UNL     1     -35.385   6.263   4.105  1.00 20.00     0.012 C 
HETATM    9  C7  UNL     1     -34.017   8.285   4.691  1.00 20.00     0.012 C 
ENDBRANCH   5   7
BRANCH   4  10
HETATM   10  C8  UNL     1     -33.088   8.838   1.298  1.00 20.00     0.121 C 
HETATM   11 CL11 UNL     1     -31.955  10.065   0.712  1.00 20.00    -0.130 Cl
ENDBRANCH   4  10
TORSDOF 2
