REMARK  1 active torsions:
REMARK  status: ('A' for Active; 'I' for Inactive)
REMARK    1  A    between atoms: C3_3  and  C8_8 
ROOT
HETATM    1  C1  UNL     1     -32.656   5.727   2.691  1.00 20.00     0.284 C 
HETATM    2  C2  UNL     1     -32.450   8.446   3.109  1.00 20.00     0.110 C 
HETATM    3  C3  UNL     1     -32.074   7.926   1.715  1.00 20.00     0.233 C 
HETATM    4  C4  UNL     1     -34.067   6.180   3.080  1.00 20.00     0.071 C 
HETATM    5  C5  UNL     1     -34.637   5.291   4.182  1.00 20.00     0.023 C 
HETATM    6  N9  UNL     1     -32.105   6.466   1.559  1.00 20.00     0.090 N 
HETATM    7  S10 UNL     1     -34.098   7.914   3.662  1.00 20.00    -0.161 SA
HETATM    8  H27 UNL     1     -31.144   6.129   1.384  1.00 20.00     0.316 HD
ENDROOT
BRANCH   3   9
HETATM    9  C8  UNL     1     -32.902   8.593   0.608  1.00 20.00     0.011 C 
HETATM   10  C6  UNL     1     -32.708  10.106   0.635  1.00 20.00     0.012 C 
HETATM   11  C7  UNL     1     -32.523   8.024  -0.756  1.00 20.00     0.012 C 
ENDBRANCH   3   9
TORSDOF 1
