REMARK  3 active torsions:
REMARK  status: ('A' for Active; 'I' for Inactive)
REMARK    1  A    between atoms: C1_1  and  C8_8 
REMARK    2  A    between atoms: C2_2  and  C3_3 
REMARK    3  A    between atoms: C3_3  and  C9_9 
ROOT
HETATM    1  C1  UNL     1     -32.830   8.300   1.935  1.00 20.00    -0.012 C 
HETATM    2  C3  UNL     1     -33.056   7.019   2.287  1.00 20.00    -0.020 C 
ENDROOT
BRANCH   2   3
HETATM    3  C2  UNL     1     -33.382   6.838   3.734  1.00 20.00     0.265 C 
HETATM    4  O10 UNL     1     -34.344   7.357   4.289  1.00 20.00    -0.302 OA
ENDBRANCH   2   3
BRANCH   2   5
HETATM    5  C9  UNL     1     -33.007   5.808   1.377  1.00 20.00     0.013 C 
HETATM    6  C6  UNL     1     -31.596   5.226   1.262  1.00 20.00     0.015 C 
HETATM    7  C7  UNL     1     -34.018   4.732   1.786  1.00 20.00     0.015 C 
ENDBRANCH   2   5
BRANCH   1   8
HETATM    8  C8  UNL     1     -32.473   8.841   0.569  1.00 20.00     0.001 C 
HETATM    9  C4  UNL     1     -33.031  10.256   0.407  1.00 20.00     0.013 C 
HETATM   10  C5  UNL     1     -30.955   8.840   0.389  1.00 20.00     0.013 C 
ENDBRANCH   1   8
TORSDOF 3
