REMARK  4 active torsions:
REMARK  status: ('A' for Active; 'I' for Inactive)
REMARK    1  A    between atoms: C2_2  and  C8_8 
REMARK    2  A    between atoms: C3_3  and  C9_9 
REMARK    3  A    between atoms: C3_3  and  O11_11 
REMARK    4  A    between atoms: C9_9  and  C10_10 
ROOT
HETATM    1  C1  UNL     1     -35.059   7.661   3.937  1.00 20.00     0.045 A 
HETATM    2  C2  UNL     1     -34.644   6.388   3.247  1.00 20.00     0.022 A 
HETATM    3  C3  UNL     1     -33.748   7.602   3.195  1.00 20.00     0.063 A 
ENDROOT
BRANCH   3   4
HETATM    4  C9  UNL     1     -33.580   8.369   1.889  1.00 20.00     0.046 C 
BRANCH   4   5
HETATM    5  C10 UNL     1     -32.217   8.188   1.171  1.00 20.00    -0.049 C 
HETATM    6  C5  UNL     1     -31.271   9.307   1.646  1.00 20.00     0.014 C 
HETATM    7  C6  UNL     1     -32.375   8.298  -0.355  1.00 20.00     0.014 C 
HETATM    8  C7  UNL     1     -31.582   6.831   1.517  1.00 20.00     0.014 C 
ENDBRANCH   4   5
ENDBRANCH   3   4
BRANCH   3   9
HETATM    9  O11 UNL     1     -32.565   7.586   4.013  1.00 20.00    -0.389 OA
HETATM   10  H31 UNL     1     -32.588   8.405   4.525  1.00 20.00     0.210 HD
ENDBRANCH   3   9
BRANCH   2  11
HETATM   11  C8  UNL     1     -34.281   5.186   4.050  1.00 20.00     0.003 C 
HETATM   12  C4  UNL     1     -33.395   4.223   3.301  1.00 20.00     0.005 C 
ENDBRANCH   2  11
TORSDOF 4
