REMARK  4 active torsions:
REMARK  status: ('A' for Active; 'I' for Inactive)
REMARK    1  A    between atoms: C1_1  and  C7_7 
REMARK    2  A    between atoms: C6_6  and  C8_8 
REMARK    3  A    between atoms: C6_6  and  O10_10 
REMARK    4  A    between atoms: C7_7  and  C8_8 
ROOT
HETATM    1  C3  UNL     1     -33.027   5.584   1.396  1.00 20.00     0.018 C 
HETATM    2  C7  UNL     1     -33.042   6.344   2.724  1.00 20.00     0.056 C 
ENDROOT
BRANCH   2   3
HETATM    3  C1  UNL     1     -34.290   5.979   3.534  1.00 20.00     0.127 C 
HETATM    4  C2  UNL     1     -34.523   4.515   3.812  1.00 20.00     0.091 C 
HETATM    5  O9  UNL     1     -35.092   6.827   3.927  1.00 20.00    -0.298 OA
ENDBRANCH   2   3
BRANCH   2   6
HETATM    6  C8  UNL     1     -32.911   7.880   2.578  1.00 20.00     0.016 C 
HETATM    7  C4  UNL     1     -32.410   8.520   3.880  1.00 20.00     0.013 C 
BRANCH   6   8
HETATM    8  C6  UNL     1     -32.024   8.300   1.396  1.00 20.00     0.172 C 
BRANCH   8   9
HETATM    9  O10 UNL     1     -32.034   9.718   1.270  1.00 20.00    -0.396 OA
HETATM   10  C5  UNL     1     -33.215  10.174   0.627  1.00 20.00     0.201 C 
ENDBRANCH   8   9
ENDBRANCH   6   8
ENDBRANCH   2   6
TORSDOF 4
