REMARK  5 active torsions:
REMARK  status: ('A' for Active; 'I' for Inactive)
REMARK    1  A    between atoms: C1_1  and  C7_7 
REMARK    2  A    between atoms: C1_1  and  C10_10 
REMARK    3  A    between atoms: C4_4  and  C8_8 
REMARK    4  A    between atoms: C8_8  and  C9_9 
REMARK    5  A    between atoms: C9_9  and  C10_10 
ROOT
HETATM    1  C6  UNL     1     -32.951   4.758   0.718  1.00 20.00     0.018 C 
HETATM    2  C10 UNL     1     -33.185   6.054   1.489  1.00 20.00     0.051 C 
ENDROOT
BRANCH   2   3
HETATM    3  C1  UNL     1     -33.747   5.703   2.866  1.00 20.00     0.130 C 
HETATM    4  O11 UNL     1     -33.454   4.651   3.434  1.00 20.00    -0.298 OA
BRANCH   3   5
HETATM    5  C7  UNL     1     -34.712   6.709   3.471  1.00 20.00     0.074 C 
HETATM    6  C5  UNL     1     -35.755   6.057   4.361  1.00 20.00     0.013 C 
ENDBRANCH   3   5
ENDBRANCH   2   3
BRANCH   2   7
HETATM    7  C9  UNL     1     -31.888   6.870   1.595  1.00 20.00     0.012 C 
BRANCH   7   8
HETATM    8  C8  UNL     1     -32.150   8.348   1.900  1.00 20.00     0.005 C 
BRANCH   8   9
HETATM    9  C4  UNL     1     -32.958   9.001   0.821  1.00 20.00    -0.014 A 
HETATM   10  C2  UNL     1     -32.961  10.498   0.678  1.00 20.00     0.005 A 
HETATM   11  C3  UNL     1     -32.273   9.646  -0.352  1.00 20.00     0.005 A 
ENDBRANCH   8   9
ENDBRANCH   7   8
ENDBRANCH   2   7
TORSDOF 5
