REMARK  4 active torsions:
REMARK  status: ('A' for Active; 'I' for Inactive)
REMARK    1  A    between atoms: C1_1  and  C10_10 
REMARK    2  A    between atoms: C5_5  and  C8_8 
REMARK    3  A    between atoms: C8_8  and  C10_10 
REMARK    4  A    between atoms: C9_9  and  C10_10 
ROOT
HETATM    1  C10 UNL     1     -33.012   6.347   1.570  1.00 20.00     0.055 C 
ENDROOT
BRANCH   1   2
HETATM    2  C1  UNL     1     -33.635   6.641   2.933  1.00 20.00     0.127 C 
HETATM    3  C6  UNL     1     -34.201   5.466   3.689  1.00 20.00     0.091 C 
HETATM    4  O11 UNL     1     -33.681   7.779   3.400  1.00 20.00    -0.298 OA
ENDBRANCH   1   2
BRANCH   1   5
HETATM    5  C8  UNL     1     -31.904   7.370   1.268  1.00 20.00     0.016 C 
BRANCH   5   6
HETATM    6  C5  UNL     1     -32.446   8.695   0.774  1.00 20.00    -0.014 C 
HETATM    7  C3  UNL     1     -32.827   8.774  -0.727  1.00 20.00     0.005 C 
HETATM    8  C2  UNL     1     -32.294  10.222  -0.710  1.00 20.00     0.001 C 
HETATM    9  C4  UNL     1     -31.404   9.804   0.479  1.00 20.00     0.005 C 
ENDBRANCH   5   6
ENDBRANCH   1   5
BRANCH   1  10
HETATM   10  C9  UNL     1     -32.444   4.918   1.552  1.00 20.00     0.007 C 
HETATM   11  C7  UNL     1     -31.838   4.581   0.192  1.00 20.00     0.006 C 
ENDBRANCH   1  10
TORSDOF 4
