REMARK  3 active torsions:
REMARK  status: ('A' for Active; 'I' for Inactive)
REMARK    1  A    between atoms: C8_8  and  C10_10 
REMARK    2  A    between atoms: C9_9  and  C11_11 
REMARK    3  A    between atoms: C10_10  and  C11_11 
ROOT
HETATM    1  C1  UNL     1     -32.932   5.966   2.098  1.00 20.00     0.131 C 
HETATM    2  C2  UNL     1     -34.170   5.125   2.329  1.00 20.00     0.079 C 
HETATM    3  C3  UNL     1     -34.598   5.195   3.787  1.00 20.00     0.007 C 
HETATM    4  C4  UNL     1     -34.749   6.637   4.263  1.00 20.00     0.001 C 
HETATM    5  C5  UNL     1     -33.451   7.419   4.062  1.00 20.00     0.012 C 
HETATM    6  C8  UNL     1     -33.000   7.406   2.598  1.00 20.00     0.055 C 
HETATM    7  O12 UNL     1     -31.977   5.525   1.461  1.00 20.00    -0.298 OA
ENDROOT
BRANCH   6   8
HETATM    8  C10 UNL     1     -31.663   8.123   2.440  1.00 20.00     0.012 C 
BRANCH   8   9
HETATM    9  C11 UNL     1     -31.441   8.571   0.999  1.00 20.00     0.005 C 
BRANCH   9  10
HETATM   10  C9  UNL     1     -32.546   9.508   0.536  1.00 20.00    -0.014 A 
HETATM   11  C6  UNL     1     -32.414  10.992   0.734  1.00 20.00     0.005 A 
HETATM   12  C7  UNL     1     -32.328  10.409  -0.648  1.00 20.00     0.005 A 
ENDBRANCH   9  10
ENDBRANCH   8   9
ENDBRANCH   6   8
TORSDOF 3
