REMARK  2 active torsions:
REMARK  status: ('A' for Active; 'I' for Inactive)
REMARK    1  A    between atoms: C3_3  and  C10_10 
REMARK    2  A    between atoms: C9_9  and  C10_10 
ROOT
HETATM    1  C1  UNL     1     -32.541   5.983   1.415  1.00 20.00     0.006 C 
HETATM    2  C2  UNL     1     -32.761   6.871   0.186  1.00 20.00     0.016 C 
HETATM    3  C3  UNL     1     -32.671   6.892   2.651  1.00 20.00    -0.006 C 
HETATM    4  C4  UNL     1     -32.530   8.329   2.100  1.00 20.00     0.000 C 
HETATM    5  C5  UNL     1     -33.222   8.208   0.741  1.00 20.00     0.062 C 
HETATM    6  C6  UNL     1     -31.049   8.727   2.051  1.00 20.00     0.011 C 
HETATM    7 BR11 UNL     1     -32.880   9.661  -0.483  1.00 20.00    -0.091 Br
ENDROOT
BRANCH   3   8
HETATM    8  C10 UNL     1     -34.012   6.676   3.356  1.00 20.00    -0.014 C 
HETATM    9  C8  UNL     1     -34.141   7.637   4.543  1.00 20.00     0.010 C 
BRANCH   8  10
HETATM   10  C9  UNL     1     -34.200   5.228   3.847  1.00 20.00     0.000 C 
HETATM   11  C7  UNL     1     -35.526   4.994   4.556  1.00 20.00     0.005 C 
ENDBRANCH   8  10
ENDBRANCH   3   8
TORSDOF 2
