REMARK  4 active torsions:
REMARK  status: ('A' for Active; 'I' for Inactive)
REMARK    1  A    between atoms: C1_1  and  C10_10 
REMARK    2  A    between atoms: C5_5  and  C9_9 
REMARK    3  A    between atoms: C9_9  and  C10_10 
REMARK    4  A    between atoms: C10_10  and  C11_11 
ROOT
HETATM    1  C10 UNL     1     -33.097   7.307   1.782  1.00 20.00     0.058 C 
ENDROOT
BRANCH   1   2
HETATM    2  C1  UNL     1     -32.783   5.900   1.260  1.00 20.00     0.127 C 
HETATM    3  C6  UNL     1     -33.953   5.075   0.785  1.00 20.00     0.091 C 
HETATM    4  O12 UNL     1     -31.636   5.457   1.205  1.00 20.00    -0.298 OA
ENDBRANCH   1   2
BRANCH   1   5
HETATM    5  C9  UNL     1     -31.953   8.286   1.460  1.00 20.00     0.017 C 
BRANCH   5   6
HETATM    6  C5  UNL     1     -32.034   8.760   0.018  1.00 20.00    -0.014 C 
HETATM    7  C3  UNL     1     -30.949   9.773  -0.427  1.00 20.00     0.005 C 
HETATM    8  C2  UNL     1     -31.951  10.902  -0.116  1.00 20.00     0.001 C 
HETATM    9  C4  UNL     1     -33.079   9.865  -0.277  1.00 20.00     0.005 C 
ENDBRANCH   5   6
ENDBRANCH   1   5
BRANCH   1  10
HETATM   10  C11 UNL     1     -33.458   7.226   3.288  1.00 20.00    -0.012 C 
HETATM   11  C7  UNL     1     -34.295   5.997   3.653  1.00 20.00     0.010 C 
HETATM   12  C8  UNL     1     -34.173   8.497   3.758  1.00 20.00     0.010 C 
ENDBRANCH   1  10
TORSDOF 4
