REMARK  3 active torsions:
REMARK  status: ('A' for Active; 'I' for Inactive)
REMARK    1  A    between atoms: C2_2  and  C10_10 
REMARK    2  A    between atoms: C3_3  and  C8_8 
REMARK    3  A    between atoms: C8_8  and  C10_10 
ROOT
HETATM    1  C4  UNL     1     -30.920   8.793   0.737  1.00 20.00     0.001 C 
HETATM    2  C5  UNL     1     -32.257   9.393   0.337  1.00 20.00     0.001 C 
HETATM    3  C6  UNL     1     -31.198   8.235   2.125  1.00 20.00     0.021 C 
HETATM    4  C7  UNL     1     -33.310   8.445   0.912  1.00 20.00     0.021 C 
HETATM    5  C8  UNL     1     -32.597   7.616   1.999  1.00 20.00     0.055 C 
ENDROOT
BRANCH   5   6
HETATM    6  C3  UNL     1     -32.487   6.177   1.559  1.00 20.00     0.182 C 
HETATM    7  O11 UNL     1     -33.584   5.570   1.423  1.00 20.00    -0.647 OA
HETATM    8  O12 UNL     1     -31.305   5.767   1.383  1.00 20.00    -0.647 OA
ENDBRANCH   5   6
BRANCH   5   9
HETATM    9  C10 UNL     1     -33.347   7.626   3.328  1.00 20.00     0.022 C 
HETATM   10  C9  UNL     1     -33.460   9.051   3.879  1.00 20.00     0.015 C 
BRANCH   9  11
HETATM   11  C2  UNL     1     -34.724   7.028   3.165  1.00 20.00    -0.031 C 
HETATM   12  C1  UNL     1     -35.152   5.942   3.819  1.00 20.00     0.007 C 
ENDBRANCH   9  11
ENDBRANCH   5   9
TORSDOF 3
