REMARK  4 active torsions:
REMARK  status: ('A' for Active; 'I' for Inactive)
REMARK    1  A    between atoms: C6_6  and  C9_9 
REMARK    2  A    between atoms: C7_7  and  C10_10 
REMARK    3  A    between atoms: C8_8  and  O11_11 
REMARK    4  A    between atoms: C9_9  and  C10_10 
ROOT
HETATM    1  C1  UNL     1     -34.999   6.890   4.932  1.00 20.00     0.003 C 
HETATM    2  C2  UNL     1     -33.783   7.780   4.667  1.00 20.00     0.007 C 
HETATM    3  C5  UNL     1     -35.287   6.145   3.626  1.00 20.00     0.032 C 
HETATM    4  C7  UNL     1     -33.573   7.734   3.152  1.00 20.00     0.014 C 
HETATM    5  C8  UNL     1     -34.030   6.322   2.782  1.00 20.00     0.122 C 
ENDROOT
BRANCH   4   6
HETATM    6  C10 UNL     1     -32.145   8.066   2.747  1.00 20.00     0.007 C 
BRANCH   6   7
HETATM    7  C9  UNL     1     -31.976   8.050   1.230  1.00 20.00     0.005 C 
BRANCH   7   8
HETATM    8  C6  UNL     1     -32.906   9.045   0.555  1.00 20.00    -0.014 A 
HETATM    9  C3  UNL     1     -32.458  10.461   0.318  1.00 20.00     0.005 A 
HETATM   10  C4  UNL     1     -32.621   9.520  -0.843  1.00 20.00     0.005 A 
ENDBRANCH   7   8
ENDBRANCH   6   7
ENDBRANCH   4   6
BRANCH   5  11
HETATM   11  O11 UNL     1     -33.057   5.356   3.159  1.00 20.00    -0.395 OA
HETATM   12  H29 UNL     1     -33.454   4.484   3.004  1.00 20.00     0.210 HD
ENDBRANCH   5  11
TORSDOF 4
