REMARK  1 active torsions:
REMARK  status: ('A' for Active; 'I' for Inactive)
REMARK    1  A    between atoms: C7_7  and  N12_12 
ROOT
HETATM    1  C1  UNL     1     -33.528   5.577   2.724  1.00 20.00     0.134 C 
HETATM    2  C2  UNL     1     -32.823   5.389   1.403  1.00 20.00     0.106 C 
HETATM    3  C4  UNL     1     -31.579   6.253   1.326  1.00 20.00     0.243 C 
HETATM    4  C5  UNL     1     -33.791   7.004   3.181  1.00 20.00     0.082 C 
HETATM    5  C8  UNL     1     -32.550   7.889   2.961  1.00 20.00     0.195 C 
HETATM    6  C9  UNL     1     -35.107   7.491   2.584  1.00 20.00     0.020 C 
HETATM    7  C11 UNL     1     -32.755   9.370   3.268  1.00 20.00     0.041 C 
HETATM    8  N12 UNL     1     -31.915   7.700   1.597  1.00 20.00    -0.061 N 
HETATM    9  O13 UNL     1     -33.964   4.614   3.356  1.00 20.00    -0.297 OA
HETATM   10  H33 UNL     1     -30.980   8.177   1.659  1.00 20.00     0.280 HD
ENDROOT
BRANCH   8  11
HETATM   11  C7  UNL     1     -32.584   8.361   0.415  1.00 20.00     0.193 A 
HETATM   12  C3  UNL     1     -31.734   8.664  -0.789  1.00 20.00     0.040 A 
HETATM   13  C6  UNL     1     -32.201   9.783   0.104  1.00 20.00     0.014 A 
HETATM   14  C10 UNL     1     -33.230  10.745  -0.380  1.00 20.00     0.012 C 
ENDBRANCH   8  11
TORSDOF 1
