REMARK  3 active torsions:
REMARK  status: ('A' for Active; 'I' for Inactive)
REMARK    1  A    between atoms: C2_2  and  C11_11 
REMARK    2  A    between atoms: C3_3  and  C9_9 
REMARK    3  A    between atoms: C9_9  and  C11_11 
ROOT
HETATM    1  C1  UNL     1     -32.084   9.027   0.679  1.00 20.00    -0.111 C 
HETATM    2  C2  UNL     1     -31.929   8.163   1.498  1.00 20.00    -0.106 C 
HETATM    3  C10 UNL     1     -32.272  10.079  -0.319  1.00 20.00     0.112 C 
ENDROOT
BRANCH   2   4
HETATM    4  C11 UNL     1     -31.726   7.114   2.499  1.00 20.00     0.114 C 
BRANCH   4   5
HETATM    5  C9  UNL     1     -32.985   6.259   2.652  1.00 20.00     0.058 C 
HETATM    6  C7  UNL     1     -32.755   5.115   3.644  1.00 20.00     0.021 C 
HETATM    7  C5  UNL     1     -34.023   4.307   3.921  1.00 20.00     0.001 C 
HETATM    8  C4  UNL     1     -35.183   5.203   4.341  1.00 20.00     0.000 C 
HETATM    9  C6  UNL     1     -35.448   6.293   3.308  1.00 20.00     0.001 C 
HETATM   10  C8  UNL     1     -34.194   7.121   3.024  1.00 20.00     0.021 C 
BRANCH   5  11
HETATM   11  C3  UNL     1     -33.175   5.689   1.248  1.00 20.00     0.182 C 
HETATM   12  O12 UNL     1     -32.117   5.557   0.572  1.00 20.00    -0.647 OA
HETATM   13  O13 UNL     1     -34.371   5.422   0.943  1.00 20.00    -0.647 OA
ENDBRANCH   5  11
ENDBRANCH   4   5
ENDBRANCH   2   4
TORSDOF 3
