REMARK  3 active torsions:
REMARK  status: ('A' for Active; 'I' for Inactive)
REMARK    1  A    between atoms: C4_4  and  C7_7 
REMARK    2  A    between atoms: C8_8  and  C9_9 
REMARK    3  A    between atoms: C9_9  and  N10_10 
ROOT
HETATM    1  C1  UNL     1     -34.902   7.146   4.585  1.00 20.00     0.032 C 
HETATM    2  C2  UNL     1     -35.241   5.724   4.150  1.00 20.00     0.038 C 
HETATM    3  C3  UNL     1     -33.822   7.619   3.619  1.00 20.00     0.273 C 
HETATM    4  C4  UNL     1     -34.102   5.314   3.219  1.00 20.00     0.237 C 
HETATM    5  N10 UNL     1     -33.795   6.596   2.575  1.00 20.00     0.098 N 
ENDROOT
BRANCH   5   6
HETATM    6  C9  UNL     1     -32.579   6.626   1.782  1.00 20.00     0.219 C 
HETATM    7  C6  UNL     1     -32.411   8.002   1.148  1.00 20.00     0.043 C 
BRANCH   6   8
HETATM    8  C8  UNL     1     -32.584   5.528   0.710  1.00 20.00     0.031 C 
HETATM    9  C5  UNL     1     -33.713   5.697  -0.298  1.00 20.00     0.007 C 
ENDBRANCH   6   8
ENDBRANCH   5   6
BRANCH   4  10
HETATM   10  C7  UNL     1     -32.955   4.657   3.993  1.00 20.00     0.150 C 
HETATM   11 CL11 UNL     1     -33.534   3.209   4.837  1.00 20.00    -0.128 Cl
ENDBRANCH   4  10
TORSDOF 3
