REMARK  2 active torsions:
REMARK  status: ('A' for Active; 'I' for Inactive)
REMARK    1  A    between atoms: C5_5  and  C11_11 
REMARK    2  A    between atoms: C6_6  and  C10_10 
ROOT
HETATM    1  C1  UNL     1     -33.181   5.870   2.264  1.00 20.00     0.131 C 
HETATM    2  C2  UNL     1     -32.914   6.077   0.789  1.00 20.00     0.079 C 
HETATM    3  C3  UNL     1     -33.195   7.522   0.410  1.00 20.00     0.012 C 
HETATM    4  C4  UNL     1     -31.875   7.998   2.558  1.00 20.00     0.017 C 
HETATM    5  C5  UNL     1     -32.854   7.015   3.211  1.00 20.00     0.059 C 
HETATM    6  C6  UNL     1     -32.277   8.500   1.158  1.00 20.00    -0.014 C 
HETATM    7  O12 UNL     1     -33.634   4.804   2.684  1.00 20.00    -0.298 OA
ENDROOT
BRANCH   5   8
HETATM    8  C11 UNL     1     -34.138   7.673   3.702  1.00 20.00    -0.011 C 
HETATM    9  C8  UNL     1     -35.026   6.655   4.414  1.00 20.00     0.010 C 
HETATM   10  C9  UNL     1     -33.821   8.847   4.626  1.00 20.00     0.010 C 
ENDBRANCH   5   8
BRANCH   6  11
HETATM   11  C10 UNL     1     -32.895   9.898   1.202  1.00 20.00     0.000 C 
HETATM   12  C7  UNL     1     -33.210  10.406  -0.166  1.00 20.00     0.005 C 
ENDBRANCH   6  11
TORSDOF 2
