REMARK  3 active torsions:
REMARK  status: ('A' for Active; 'I' for Inactive)
REMARK    1  A    between atoms: C7_7  and  C9_9 
REMARK    2  A    between atoms: C8_8  and  C10_10 
REMARK    3  A    between atoms: C9_9  and  C10_10 
ROOT
HETATM    1  C1  UNL     1     -33.535   5.950   2.792  1.00 20.00     0.131 C 
HETATM    2  C2  UNL     1     -34.239   5.362   3.988  1.00 20.00     0.079 C 
HETATM    3  C3  UNL     1     -34.784   6.606   4.678  1.00 20.00     0.008 C 
HETATM    4  C4  UNL     1     -33.767   7.694   4.356  1.00 20.00     0.013 C 
HETATM    5  C7  UNL     1     -33.423   7.458   2.884  1.00 20.00     0.055 C 
HETATM    6  O11 UNL     1     -33.106   5.280   1.861  1.00 20.00    -0.298 OA
ENDROOT
BRANCH   5   7
HETATM    7  C9  UNL     1     -32.049   7.975   2.508  1.00 20.00     0.012 C 
BRANCH   7   8
HETATM    8  C10 UNL     1     -31.855   8.011   0.992  1.00 20.00     0.005 C 
BRANCH   8   9
HETATM    9  C8  UNL     1     -32.893   8.892   0.315  1.00 20.00    -0.014 A 
HETATM   10  C5  UNL     1     -32.625  10.358   0.110  1.00 20.00     0.005 A 
HETATM   11  C6  UNL     1     -32.646   9.425  -1.069  1.00 20.00     0.005 A 
ENDBRANCH   8   9
ENDBRANCH   7   8
ENDBRANCH   5   7
TORSDOF 3
