REMARK  3 active torsions:
REMARK  status: ('A' for Active; 'I' for Inactive)
REMARK    1  A    between atoms: C4_4  and  C6_6 
REMARK    2  A    between atoms: C5_5  and  O8_8 
REMARK    3  A    between atoms: C6_6  and  C7_7 
ROOT
HETATM    1  C1  UNL     1     -34.523   6.043   4.601  1.00 20.00     0.003 C 
HETATM    2  C2  UNL     1     -34.370   7.453   4.027  1.00 20.00     0.007 C 
HETATM    3  C3  UNL     1     -33.847   5.099   3.608  1.00 20.00     0.032 C 
HETATM    4  C4  UNL     1     -33.270   7.330   2.977  1.00 20.00     0.023 C 
HETATM    5  C5  UNL     1     -33.541   5.950   2.381  1.00 20.00     0.122 C 
ENDROOT
BRANCH   4   6
HETATM    6  C6  UNL     1     -33.298   8.447   1.946  1.00 20.00     0.124 C 
BRANCH   6   7
HETATM    7  C7  UNL     1     -31.986   8.557   1.220  1.00 20.00     0.388 C 
HETATM    8  F9  UNL     1     -30.965   8.818   2.064  1.00 20.00    -0.171 F 
HETATM    9  F10 UNL     1     -32.047   9.570   0.327  1.00 20.00    -0.171 F 
HETATM   10  F11 UNL     1     -31.690   7.430   0.540  1.00 20.00    -0.171 F 
ENDBRANCH   6   7
ENDBRANCH   4   6
BRANCH   5  11
HETATM   11  O8  UNL     1     -32.412   5.464   1.680  1.00 20.00    -0.395 OA
HETATM   12  H22 UNL     1     -32.616   4.555   1.404  1.00 20.00     0.210 HD
ENDBRANCH   5  11
TORSDOF 3
