REMARK  4 active torsions:
REMARK  status: ('A' for Active; 'I' for Inactive)
REMARK    1  A    between atoms: C1_1  and  C5_5 
REMARK    2  A    between atoms: C1_1  and  C8_8 
REMARK    3  A    between atoms: C5_5  and  C6_6 
REMARK    4  A    between atoms: C6_6  and  C7_7 
ROOT
HETATM    1  C1  UNL     1     -32.958   6.700   2.018  1.00 20.00     0.134 C 
HETATM    2  O9  UNL     1     -32.978   5.970   1.025  1.00 20.00    -0.297 OA
ENDROOT
BRANCH   1   3
HETATM    3  C5  UNL     1     -31.876   7.763   2.185  1.00 20.00     0.084 C 
BRANCH   3   4
HETATM    4  C6  UNL     1     -31.321   8.276   0.858  1.00 20.00     0.078 C 
BRANCH   4   5
HETATM    5  C7  UNL     1     -32.387   8.912  -0.015  1.00 20.00     0.353 C 
HETATM    6  F10 UNL     1     -31.792   9.737  -0.914  1.00 20.00    -0.214 F 
HETATM    7  F11 UNL     1     -33.201   9.687   0.743  1.00 20.00    -0.214 F 
ENDBRANCH   4   5
ENDBRANCH   3   4
ENDBRANCH   1   3
BRANCH   1   8
HETATM    8  C8  UNL     1     -34.018   6.566   3.132  1.00 20.00     0.009 C 
HETATM    9  C2  UNL     1     -33.723   7.601   4.225  1.00 20.00     0.022 C 
HETATM   10  C3  UNL     1     -34.011   5.150   3.721  1.00 20.00     0.022 C 
HETATM   11  C4  UNL     1     -35.414   6.844   2.547  1.00 20.00     0.022 C 
ENDBRANCH   1   8
TORSDOF 4
