REMARK  2 active torsions:
REMARK  status: ('A' for Active; 'I' for Inactive)
REMARK    1  A    between atoms: C4_4  and  C5_5 
REMARK    2  A    between atoms: C5_5  and  C6_6 
ROOT
HETATM    1  C1  UNL     1     -33.054   7.726   2.692  1.00 20.00     0.038 A 
HETATM    2  C2  UNL     1     -32.981   5.472   2.130  1.00 20.00     0.074 A 
HETATM    3  C3  UNL     1     -33.636   6.437   2.863  1.00 20.00     0.041 A 
HETATM    4  C4  UNL     1     -31.976   7.698   1.834  1.00 20.00    -0.015 A 
HETATM    5  S7  UNL     1     -31.670   6.121   1.239  1.00 20.00    -0.105 SA
HETATM    6 CL8  UNL     1     -34.988   6.154   3.869  1.00 20.00    -0.084 Cl
ENDROOT
BRANCH   4   7
HETATM    7  C5  UNL     1     -31.112   8.818   1.404  1.00 20.00     0.061 C 
BRANCH   7   8
HETATM    8  C6  UNL     1     -31.434   9.377   0.009  1.00 20.00     0.119 C 
HETATM    9 CL9  UNL     1     -33.111   9.970  -0.088  1.00 20.00    -0.130 Cl
ENDBRANCH   7   8
ENDBRANCH   4   7
TORSDOF 2
