REMARK  4 active torsions:
REMARK  status: ('A' for Active; 'I' for Inactive)
REMARK    1  A    between atoms: C1_1  and  C9_9 
REMARK    2  A    between atoms: C4_4  and  C8_8 
REMARK    3  A    between atoms: C8_8  and  C9_9 
REMARK    4  A    between atoms: C9_9  and  C10_10 
ROOT
HETATM    1  C9  UNL     1     -33.423   7.036   2.365  1.00 20.00     0.058 C 
ENDROOT
BRANCH   1   2
HETATM    2  C1  UNL     1     -32.890   5.738   1.747  1.00 20.00     0.127 C 
HETATM    3  C5  UNL     1     -31.677   5.124   2.399  1.00 20.00     0.091 C 
HETATM    4  O11 UNL     1     -33.425   5.199   0.778  1.00 20.00    -0.298 OA
ENDBRANCH   1   2
BRANCH   1   5
HETATM    5  C8  UNL     1     -32.385   8.168   2.257  1.00 20.00     0.017 C 
BRANCH   5   6
HETATM    6  C4  UNL     1     -32.033   8.448   0.796  1.00 20.00    -0.014 A 
HETATM    7  C2  UNL     1     -32.823   9.454   0.007  1.00 20.00     0.005 A 
HETATM    8  C3  UNL     1     -31.406   9.757   0.407  1.00 20.00     0.005 A 
ENDBRANCH   5   6
ENDBRANCH   1   5
BRANCH   1   9
HETATM    9  C10 UNL     1     -33.907   6.755   3.812  1.00 20.00    -0.012 C 
HETATM   10  C6  UNL     1     -35.003   5.688   3.896  1.00 20.00     0.010 C 
HETATM   11  C7  UNL     1     -34.380   8.039   4.500  1.00 20.00     0.010 C 
ENDBRANCH   1   9
TORSDOF 4
