REMARK  5 active torsions:
REMARK  status: ('A' for Active; 'I' for Inactive)
REMARK    1  A    between atoms: C1_1  and  C10_10 
REMARK    2  A    between atoms: C4_4  and  C8_8 
REMARK    3  A    between atoms: C8_8  and  C9_9 
REMARK    4  A    between atoms: C9_9  and  C10_10 
REMARK    5  A    between atoms: C10_10  and  C11_11 
ROOT
HETATM    1  C10 UNL     1     -33.031   6.356   2.426  1.00 20.00     0.058 C 
ENDROOT
BRANCH   1   2
HETATM    2  C1  UNL     1     -32.840   5.464   1.195  1.00 20.00     0.127 C 
HETATM    3  C5  UNL     1     -34.045   5.258   0.312  1.00 20.00     0.091 C 
HETATM    4  O12 UNL     1     -31.768   4.919   0.935  1.00 20.00    -0.298 OA
ENDBRANCH   1   2
BRANCH   1   5
HETATM    5  C9  UNL     1     -33.387   7.798   2.016  1.00 20.00     0.013 C 
BRANCH   5   6
HETATM    6  C8  UNL     1     -32.289   8.450   1.167  1.00 20.00     0.005 C 
BRANCH   6   7
HETATM    7  C4  UNL     1     -32.633   9.864   0.809  1.00 20.00    -0.014 A 
HETATM    8  C2  UNL     1     -31.950  10.540  -0.348  1.00 20.00     0.005 A 
HETATM    9  C3  UNL     1     -33.401  10.160  -0.449  1.00 20.00     0.005 A 
ENDBRANCH   6   7
ENDBRANCH   5   6
ENDBRANCH   1   5
BRANCH   1  10
HETATM   10  C11 UNL     1     -34.058   5.695   3.383  1.00 20.00    -0.012 C 
HETATM   11  C6  UNL     1     -33.650   4.297   3.854  1.00 20.00     0.010 C 
HETATM   12  C7  UNL     1     -34.343   6.587   4.596  1.00 20.00     0.010 C 
ENDBRANCH   1  10
TORSDOF 5
