REMARK  3 active torsions:
REMARK  status: ('A' for Active; 'I' for Inactive)
REMARK    1  A    between atoms: C1_1  and  C7_7 
REMARK    2  A    between atoms: C7_7  and  C8_8 
REMARK    3  A    between atoms: C7_7  and  C9_9 
ROOT
HETATM    1  C7  UNL     1     -33.597   6.993   2.146  1.00 20.00     0.061 C 
ENDROOT
BRANCH   1   2
HETATM    2  C1  UNL     1     -32.601   8.121   1.847  1.00 20.00     0.128 C 
HETATM    3  C2  UNL     1     -33.147   9.345   1.154  1.00 20.00     0.091 C 
HETATM    4  O10 UNL     1     -31.407   8.038   2.134  1.00 20.00    -0.298 OA
ENDBRANCH   1   2
BRANCH   1   5
HETATM    5  C8  UNL     1     -33.751   6.777   3.679  1.00 20.00    -0.011 C 
HETATM    6  C3  UNL     1     -34.660   5.585   4.001  1.00 20.00     0.010 C 
HETATM    7  C4  UNL     1     -34.232   8.012   4.448  1.00 20.00     0.010 C 
ENDBRANCH   1   5
BRANCH   1   8
HETATM    8  C9  UNL     1     -33.204   5.723   1.336  1.00 20.00    -0.011 C 
HETATM    9  C5  UNL     1     -33.206   5.966  -0.177  1.00 20.00     0.010 C 
HETATM   10  C6  UNL     1     -31.812   5.215   1.745  1.00 20.00     0.010 C 
ENDBRANCH   1   8
TORSDOF 3
