REMARK  3 active torsions:
REMARK  status: ('A' for Active; 'I' for Inactive)
REMARK    1  A    between atoms: C7_7  and  C9_9 
REMARK    2  A    between atoms: C8_8  and  C10_10 
REMARK    3  A    between atoms: C9_9  and  C10_10 
ROOT
HETATM    1  C1  UNL     1     -33.522   5.792   2.541  1.00 20.00     0.131 C 
HETATM    2  C2  UNL     1     -34.956   5.400   2.798  1.00 20.00     0.079 C 
HETATM    3  C3  UNL     1     -35.271   6.173   4.072  1.00 20.00     0.008 C 
HETATM    4  C4  UNL     1     -34.416   7.430   3.976  1.00 20.00     0.013 C 
HETATM    5  C7  UNL     1     -33.075   6.928   3.438  1.00 20.00     0.055 C 
HETATM    6  O11 UNL     1     -32.812   5.250   1.703  1.00 20.00    -0.298 OA
ENDROOT
BRANCH   5   7
HETATM    7  C9  UNL     1     -32.297   7.997   2.697  1.00 20.00     0.012 C 
BRANCH   7   8
HETATM    8  C10 UNL     1     -32.875   8.251   1.304  1.00 20.00     0.005 C 
BRANCH   8   9
HETATM    9  C8  UNL     1     -32.112   9.344   0.571  1.00 20.00    -0.014 A 
HETATM   10  C5  UNL     1     -32.743  10.059  -0.592  1.00 20.00     0.005 A 
HETATM   11  C6  UNL     1     -32.531  10.781   0.709  1.00 20.00     0.005 A 
ENDBRANCH   8   9
ENDBRANCH   7   8
ENDBRANCH   5   7
TORSDOF 3
