REMARK  4 active torsions:
REMARK  status: ('A' for Active; 'I' for Inactive)
REMARK    1  A    between atoms: C1_1  and  C6_6 
REMARK    2  A    between atoms: C4_4  and  C6_6 
REMARK    3  A    between atoms: C5_5  and  C6_6 
REMARK    4  A    between atoms: C5_5  and  C7_7 
ROOT
HETATM    1  C6  UNL     1     -32.331   8.282   1.850  1.00 20.00     0.059 C 
ENDROOT
BRANCH   1   2
HETATM    2  C1  UNL     1     -32.263   9.094   0.559  1.00 20.00     0.127 C 
HETATM    3  C2  UNL     1     -32.889  10.464   0.585  1.00 20.00     0.091 C 
HETATM    4  O8  UNL     1     -31.721   8.661  -0.458  1.00 20.00    -0.298 OA
ENDBRANCH   1   2
BRANCH   1   5
HETATM    5  C4  UNL     1     -31.622   6.931   1.652  1.00 20.00     0.008 C 
HETATM    6  C3  UNL     1     -32.263   6.078   0.565  1.00 20.00     0.006 C 
ENDBRANCH   1   5
BRANCH   1   7
HETATM    7  C5  UNL     1     -33.798   8.059   2.267  1.00 20.00     0.083 C 
BRANCH   7   8
HETATM    8  C7  UNL     1     -33.951   7.256   3.549  1.00 20.00     0.353 C 
HETATM    9  F9  UNL     1     -33.829   5.930   3.303  1.00 20.00    -0.214 F 
HETATM   10  F10 UNL     1     -35.182   7.452   4.080  1.00 20.00    -0.214 F 
ENDBRANCH   7   8
ENDBRANCH   1   7
TORSDOF 4
