REMARK  2 active torsions:
REMARK  status: ('A' for Active; 'I' for Inactive)
REMARK    1  A    between atoms: C7_7  and  C8_8 
REMARK    2  A    between atoms: C8_8  and  S9_9 
ROOT
HETATM    1  C1  UNL     1     -31.801   7.569   2.114  1.00 20.00     0.005 C 
HETATM    2  C2  UNL     1     -33.036   7.733   3.013  1.00 20.00     0.005 C 
HETATM    3  C3  UNL     1     -33.485   6.041   1.412  1.00 20.00     0.009 C 
HETATM    4  C4  UNL     1     -31.684   5.125   2.668  1.00 20.00     0.010 C 
HETATM    5  C5  UNL     1     -31.968   6.147   1.552  1.00 20.00    -0.014 C 
HETATM    6  C6  UNL     1     -33.738   6.368   2.886  1.00 20.00    -0.009 C 
HETATM    7  C7  UNL     1     -32.882   5.311   3.624  1.00 20.00    -0.001 C 
ENDROOT
BRANCH   7   8
HETATM    8  C8  UNL     1     -33.634   4.007   3.869  1.00 20.00     0.075 C 
BRANCH   8   9
HETATM    9  S9  UNL     1     -32.770   3.006   5.106  1.00 20.00    -0.182 SA
HETATM   10  H23 UNL     1     -33.637   1.983   5.097  1.00 20.00     0.101 HD
ENDBRANCH   8   9
ENDBRANCH   7   8
TORSDOF 2
