REMARK  3 active torsions:
REMARK  status: ('A' for Active; 'I' for Inactive)
REMARK    1  A    between atoms: C7_7  and  C9_9 
REMARK    2  A    between atoms: C9_9  and  N10_10 
REMARK    3  A    between atoms: N10_10  and  O11_11 
ROOT
HETATM    1  C1  UNL     1     -31.882   7.643   1.468  1.00 20.00     0.005 C 
HETATM    2  C2  UNL     1     -31.828   6.108   1.472  1.00 20.00     0.005 C 
HETATM    3  C3  UNL     1     -34.090   6.785   1.239  1.00 20.00     0.010 C 
HETATM    4  C4  UNL     1     -33.499   7.621   3.386  1.00 20.00     0.011 C 
HETATM    5  C5  UNL     1     -33.331   7.940   1.889  1.00 20.00    -0.014 C 
HETATM    6  C6  UNL     1     -33.244   5.715   1.933  1.00 20.00    -0.009 C 
HETATM    7  C7  UNL     1     -33.387   6.082   3.430  1.00 20.00     0.005 C 
ENDROOT
BRANCH   7   8
HETATM    8  C9  UNL     1     -34.600   5.432   4.085  1.00 20.00     0.122 C 
BRANCH   8   9
HETATM    9  N10 UNL     1     -34.448   4.016   4.091  1.00 20.00    -0.206 NA
HETATM   10  H28 UNL     1     -35.258   3.555   4.530  1.00 20.00     0.153 HD
BRANCH   9  11
HETATM   11  O11 UNL     1     -33.416   3.724   5.088  1.00 20.00    -0.311 OA
HETATM   12  C8  UNL     1     -32.963   2.393   4.886  1.00 20.00     0.229 C 
ENDBRANCH   9  11
ENDBRANCH   8   9
ENDBRANCH   7   8
TORSDOF 3
