REMARK  3 active torsions:
REMARK  status: ('A' for Active; 'I' for Inactive)
REMARK    1  A    between atoms: C1_1  and  C10_10 
REMARK    2  A    between atoms: C8_8  and  C11_11 
REMARK    3  A    between atoms: C10_10  and  C11_11 
ROOT
HETATM    1  C2  UNL     1     -35.551   6.587   3.995  1.00 20.00     0.005 C 
HETATM    2  C3  UNL     1     -35.542   7.004   2.517  1.00 20.00     0.005 C 
HETATM    3  C4  UNL     1     -33.678   5.593   2.914  1.00 20.00     0.009 C 
HETATM    4  C5  UNL     1     -33.225   7.478   4.291  1.00 20.00     0.009 C 
HETATM    5  C6  UNL     1     -34.085   6.201   4.254  1.00 20.00    -0.014 C 
HETATM    6  C7  UNL     1     -34.062   6.845   2.122  1.00 20.00    -0.010 C 
HETATM    7  C8  UNL     1     -33.250   7.959   2.824  1.00 20.00    -0.010 C 
ENDROOT
BRANCH   7   8
HETATM    8  C11 UNL     1     -31.848   8.123   2.246  1.00 20.00     0.012 C 
BRANCH   8   9
HETATM    9  C10 UNL     1     -31.896   8.638   0.813  1.00 20.00     0.078 C 
BRANCH   9  10
HETATM   10  C1  UNL     1     -32.604   9.977   0.703  1.00 20.00     0.123 C 
HETATM   11  C9  UNL     1     -33.345  10.232  -0.583  1.00 20.00     0.091 C 
HETATM   12  O12 UNL     1     -32.585  10.818   1.601  1.00 20.00    -0.298 OA
ENDBRANCH   9  10
ENDBRANCH   8   9
ENDBRANCH   7   8
TORSDOF 3
