REMARK  3 active torsions:
REMARK  status: ('A' for Active; 'I' for Inactive)
REMARK    1  A    between atoms: C3_3  and  C5_5 
REMARK    2  A    between atoms: C6_6  and  C8_8 
REMARK    3  A    between atoms: C8_8  and  C9_9 
ROOT
HETATM    1  C1  UNL     1     -33.002   5.040   3.363  1.00 20.00     0.026 A 
HETATM    2  C2  UNL     1     -35.047   6.116   3.619  1.00 20.00     0.061 A 
HETATM    3  C3  UNL     1     -33.796   6.179   3.044  1.00 20.00    -0.029 A 
HETATM    4  C4  UNL     1     -33.676   4.149   4.170  1.00 20.00    -0.021 A 
HETATM    5  C7  UNL     1     -33.201   2.859   4.714  1.00 20.00     0.056 C 
HETATM    6  S10 UNL     1     -35.259   4.688   4.540  1.00 20.00    -0.106 SA
ENDROOT
BRANCH   3   7
HETATM    7  C5  UNL     1     -33.360   7.306   2.204  1.00 20.00     0.008 C 
HETATM    8  C6  UNL     1     -32.154   7.415   1.624  1.00 20.00    -0.025 C 
BRANCH   8   9
HETATM    9  C8  UNL     1     -31.746   8.590   0.779  1.00 20.00     0.042 C 
BRANCH   9  10
HETATM   10  C9  UNL     1     -32.880   9.590   0.575  1.00 20.00     0.118 C 
HETATM   11 CL11 UNL     1     -32.375  10.957  -0.448  1.00 20.00    -0.130 Cl
ENDBRANCH   9  10
ENDBRANCH   8   9
ENDBRANCH   3   7
TORSDOF 3
