REMARK  4 active torsions:
REMARK  status: ('A' for Active; 'I' for Inactive)
REMARK    1  A    between atoms: C6_6  and  C7_7 
REMARK    2  A    between atoms: C6_6  and  O10_10 
REMARK    3  A    between atoms: C7_7  and  C8_8 
REMARK    4  A    between atoms: C7_7  and  O9_9 
ROOT
HETATM    1  C7  UNL     1     -33.373   7.545   3.198  1.00 20.00     0.154 C 
ENDROOT
BRANCH   1   2
HETATM    2  C6  UNL     1     -34.463   6.562   3.673  1.00 20.00     0.146 C 
HETATM    3  C1  UNL     1     -35.804   6.785   2.977  1.00 20.00     0.042 C 
BRANCH   2   4
HETATM    4  O10 UNL     1     -34.077   5.211   3.443  1.00 20.00    -0.388 OA
HETATM    5  C5  UNL     1     -34.751   4.321   4.320  1.00 20.00     0.202 C 
ENDBRANCH   2   4
ENDBRANCH   1   2
BRANCH   1   6
HETATM    6  C8  UNL     1     -32.639   7.204   1.859  1.00 20.00    -0.023 C 
HETATM    7  C2  UNL     1     -32.180   8.526   1.200  1.00 20.00     0.017 C 
HETATM    8  C3  UNL     1     -31.388   6.346   2.122  1.00 20.00     0.017 C 
HETATM    9  C4  UNL     1     -33.540   6.473   0.846  1.00 20.00     0.017 C 
ENDBRANCH   1   6
BRANCH   1  10
HETATM   10  O9  UNL     1     -32.383   7.685   4.223  1.00 20.00    -0.392 OA
HETATM   11  H28 UNL     1     -32.846   8.026   5.001  1.00 20.00     0.210 HD
ENDBRANCH   1  10
TORSDOF 4
