REMARK  4 active torsions:
REMARK  status: ('A' for Active; 'I' for Inactive)
REMARK    1  A    between atoms: C6_6  and  C7_7 
REMARK    2  A    between atoms: C6_6  and  O10_10 
REMARK    3  A    between atoms: C7_7  and  C8_8 
REMARK    4  A    between atoms: C7_7  and  O9_9 
ROOT
HETATM    1  C7  UNL     1     -33.389   5.687   2.898  1.00 20.00     0.154 C 
ENDROOT
BRANCH   1   2
HETATM    2  C6  UNL     1     -32.652   5.955   1.569  1.00 20.00     0.146 C 
HETATM    3  C1  UNL     1     -31.484   4.999   1.337  1.00 20.00     0.042 C 
BRANCH   2   4
HETATM    4  O10 UNL     1     -32.140   7.283   1.522  1.00 20.00    -0.388 OA
HETATM    5  C5  UNL     1     -31.964   7.725   0.184  1.00 20.00     0.202 C 
ENDBRANCH   2   4
ENDBRANCH   1   2
BRANCH   1   6
HETATM    6  C8  UNL     1     -34.274   6.849   3.460  1.00 20.00    -0.023 C 
HETATM    7  C2  UNL     1     -33.404   7.718   4.399  1.00 20.00     0.017 C 
HETATM    8  C3  UNL     1     -34.787   7.748   2.321  1.00 20.00     0.017 C 
HETATM    9  C4  UNL     1     -35.478   6.349   4.280  1.00 20.00     0.017 C 
ENDBRANCH   1   6
BRANCH   1  10
HETATM   10  O9  UNL     1     -34.201   4.517   2.760  1.00 20.00    -0.392 OA
HETATM   11  H28 UNL     1     -34.826   4.704   2.046  1.00 20.00     0.210 HD
ENDBRANCH   1  10
TORSDOF 4
