REMARK  2 active torsions:
REMARK  status: ('A' for Active; 'I' for Inactive)
REMARK    1  A    between atoms: C7_7  and  C8_8 
REMARK    2  A    between atoms: C8_8  and  S9_9 
ROOT
HETATM    1  C1  UNL     1     -32.883   5.589   1.900  1.00 20.00     0.005 C 
HETATM    2  C2  UNL     1     -31.458   6.134   1.720  1.00 20.00     0.005 C 
HETATM    3  C3  UNL     1     -32.420   7.164   3.625  1.00 20.00     0.009 C 
HETATM    4  C4  UNL     1     -33.816   7.909   1.836  1.00 20.00     0.010 C 
HETATM    5  C5  UNL     1     -33.568   6.684   2.736  1.00 20.00    -0.014 C 
HETATM    6  C6  UNL     1     -31.516   7.496   2.433  1.00 20.00    -0.009 C 
HETATM    7  C7  UNL     1     -32.403   8.506   1.668  1.00 20.00    -0.001 C 
ENDROOT
BRANCH   7   8
HETATM    8  C8  UNL     1     -32.019   8.760   0.220  1.00 20.00     0.075 C 
BRANCH   8   9
HETATM    9  S9  UNL     1     -32.752  10.311  -0.368  1.00 20.00    -0.182 SA
HETATM   10  H23 UNL     1     -32.250  10.247  -1.609  1.00 20.00     0.101 HD
ENDBRANCH   8   9
ENDBRANCH   7   8
TORSDOF 2
