REMARK  2 active torsions:
REMARK  status: ('A' for Active; 'I' for Inactive)
REMARK    1  A    between atoms: C3_3  and  C4_4 
REMARK    2  A    between atoms: C3_3  and  S9_9 
ROOT
HETATM    1  C1  UNL     1     -32.963   7.052   1.873  1.00 20.00     0.083 C 
HETATM    2  C3  UNL     1     -33.711   6.120   2.728  1.00 20.00     0.261 C 
HETATM    3  N5  UNL     1     -32.369   7.784   1.195  1.00 20.00    -0.196 NA
ENDROOT
BRANCH   2   4
HETATM    4  C4  UNL     1     -34.736   6.858   3.573  1.00 20.00     0.412 C 
HETATM    5  F6  UNL     1     -35.428   6.005   4.364  1.00 20.00    -0.169 F 
HETATM    6  F7  UNL     1     -34.131   7.750   4.392  1.00 20.00    -0.169 F 
HETATM    7  F8  UNL     1     -35.628   7.537   2.820  1.00 20.00    -0.169 F 
ENDBRANCH   2   4
BRANCH   2   8
HETATM    8  S9  UNL     1     -32.580   5.175   3.806  1.00 20.00    -0.145 SA
HETATM    9  C2  UNL     1     -33.689   3.804   4.194  1.00 20.00     0.091 C 
ENDBRANCH   2   8
TORSDOF 2
