REMARK  2 active torsions:
REMARK  status: ('A' for Active; 'I' for Inactive)
REMARK    1  A    between atoms: C4_4  and  C7_7 
REMARK    2  A    between atoms: C7_7  and  O8_8 
ROOT
HETATM    1  C1  UNL     1     -34.380   7.897   3.384  1.00 20.00     0.008 C 
HETATM    2  C2  UNL     1     -35.253   6.662   3.622  1.00 20.00     0.016 C 
HETATM    3  C3  UNL     1     -33.468   6.155   2.035  1.00 20.00     0.022 C 
HETATM    4  C4  UNL     1     -33.044   7.349   2.890  1.00 20.00     0.011 C 
HETATM    5  C5  UNL     1     -34.607   5.526   2.829  1.00 20.00     0.058 C 
HETATM    6 BR9  UNL     1     -33.899   4.171   4.050  1.00 20.00    -0.091 Br
ENDROOT
BRANCH   4   7
HETATM    7  C7  UNL     1     -32.225   8.372   2.122  1.00 20.00     0.171 C 
BRANCH   7   8
HETATM    8  O8  UNL     1     -32.964   8.789   0.985  1.00 20.00    -0.396 OA
HETATM    9  C6  UNL     1     -32.250   9.752   0.219  1.00 20.00     0.201 C 
ENDBRANCH   7   8
ENDBRANCH   4   7
TORSDOF 2
