REMARK  2 active torsions:
REMARK  status: ('A' for Active; 'I' for Inactive)
REMARK    1  A    between atoms: C4_4  and  C7_7 
REMARK    2  A    between atoms: C7_7  and  O8_8 
ROOT
HETATM    1  C1  UNL     1     -31.409   7.506   1.711  1.00 20.00     0.008 C 
HETATM    2  C2  UNL     1     -31.126   8.755   0.889  1.00 20.00     0.020 C 
HETATM    3  C3  UNL     1     -33.332   9.025   1.810  1.00 20.00     0.027 C 
HETATM    4  C4  UNL     1     -32.619   7.892   2.571  1.00 20.00     0.011 C 
HETATM    5  C5  UNL     1     -32.527   9.218   0.526  1.00 20.00     0.082 C 
HETATM    6 CL9  UNL     1     -32.555  10.892  -0.049  1.00 20.00    -0.125 Cl
ENDROOT
BRANCH   4   7
HETATM    7  C7  UNL     1     -33.528   6.706   2.860  1.00 20.00     0.171 C 
BRANCH   7   8
HETATM    8  O8  UNL     1     -34.608   7.146   3.665  1.00 20.00    -0.396 OA
HETATM    9  C6  UNL     1     -35.500   6.082   3.974  1.00 20.00     0.201 C 
ENDBRANCH   7   8
ENDBRANCH   4   7
TORSDOF 2
