REMARK  4 active torsions:
REMARK  status: ('A' for Active; 'I' for Inactive)
REMARK    1  A    between atoms: C2_2  and  C7_7 
REMARK    2  A    between atoms: C2_2  and  O11_11 
REMARK    3  A    between atoms: C6_6  and  C7_7 
REMARK    4  A    between atoms: C6_6  and  C8_8 
ROOT
HETATM    1  C1  UNL     1     -33.398   5.608   1.307  1.00 20.00     0.074 C 
HETATM    2  C7  UNL     1     -33.188   6.529   2.440  1.00 20.00     0.192 C 
HETATM    3  N9  UNL     1     -33.560   4.881   0.417  1.00 20.00    -0.196 NA
ENDROOT
BRANCH   2   4
HETATM    4  C2  UNL     1     -34.190   6.238   3.547  1.00 20.00     0.276 C 
HETATM    5  O10 UNL     1     -34.982   7.048   4.011  1.00 20.00    -0.264 OA
BRANCH   4   6
HETATM    6  O11 UNL     1     -34.071   4.932   3.934  1.00 20.00    -0.325 OA
HETATM    7  C5  UNL     1     -34.963   4.511   4.972  1.00 20.00     0.213 C 
ENDBRANCH   4   6
ENDBRANCH   2   4
BRANCH   2   8
HETATM    8  C6  UNL     1     -33.334   7.997   2.002  1.00 20.00     0.033 C 
BRANCH   8   9
HETATM    9  C8  UNL     1     -32.388   8.444   0.867  1.00 20.00    -0.021 C 
HETATM   10  C3  UNL     1     -30.933   8.268   1.311  1.00 20.00     0.009 C 
HETATM   11  C4  UNL     1     -32.625   9.895   0.447  1.00 20.00     0.009 C 
ENDBRANCH   8   9
ENDBRANCH   2   8
TORSDOF 4
