REMARK  3 active torsions:
REMARK  status: ('A' for Active; 'I' for Inactive)
REMARK    1  A    between atoms: C7_7  and  C9_9 
REMARK    2  A    between atoms: C8_8  and  O11_11 
REMARK    3  A    between atoms: C9_9  and  O11_11 
ROOT
HETATM    1  C1  UNL     1     -33.762   4.172   3.970  1.00 20.00     0.129 C 
HETATM    2  C2  UNL     1     -35.074   4.809   4.347  1.00 20.00     0.081 C 
HETATM    3  C3  UNL     1     -32.910   5.077   3.119  1.00 20.00     0.110 C 
HETATM    4  C4  UNL     1     -35.128   5.987   3.386  1.00 20.00     0.040 C 
HETATM    5  C8  UNL     1     -33.672   6.396   3.196  1.00 20.00     0.128 C 
HETATM    6  O10 UNL     1     -33.422   3.051   4.325  1.00 20.00    -0.298 OA
ENDROOT
BRANCH   5   7
HETATM    7  O11 UNL     1     -33.508   7.137   2.000  1.00 20.00    -0.385 OA
BRANCH   7   8
HETATM    8  C9  UNL     1     -32.263   7.820   1.980  1.00 20.00     0.172 C 
BRANCH   8   9
HETATM    9  C7  UNL     1     -32.145   8.591   0.682  1.00 20.00     0.009 A 
HETATM   10  C5  UNL     1     -32.845   9.911   0.520  1.00 20.00     0.007 A 
HETATM   11  C6  UNL     1     -31.347   9.864   0.629  1.00 20.00     0.007 A 
ENDBRANCH   8   9
ENDBRANCH   7   8
ENDBRANCH   5   7
TORSDOF 3
