REMARK  2 active torsions:
REMARK  status: ('A' for Active; 'I' for Inactive)
REMARK    1  A    between atoms: C2_2  and  C8_8 
REMARK    2  A    between atoms: C2_2  and  C9_9 
ROOT
HETATM    1  C1  UNL     1     -34.324   5.975   3.789  1.00 20.00     0.127 C 
HETATM    2  C3  UNL     1     -34.632   7.242   4.538  1.00 20.00     0.079 C 
HETATM    3  C4  UNL     1     -33.569   6.233   2.510  1.00 20.00     0.090 C 
HETATM    4  C5  UNL     1     -33.696   8.235   3.865  1.00 20.00     0.020 C 
HETATM    5  C8  UNL     1     -33.590   7.757   2.419  1.00 20.00     0.063 C 
HETATM    6  O10 UNL     1     -34.665   4.861   4.165  1.00 20.00    -0.298 OA
ENDROOT
BRANCH   5   7
HETATM    7  C2  UNL     1     -32.342   8.271   1.775  1.00 20.00     0.135 C 
HETATM    8  O11 UNL     1     -31.229   8.028   2.240  1.00 20.00    -0.297 OA
BRANCH   7   9
HETATM    9  C9  UNL     1     -32.515   9.101   0.531  1.00 20.00     0.056 A 
HETATM   10  C6  UNL     1     -32.770  10.556   0.690  1.00 20.00     0.013 A 
HETATM   11  C7  UNL     1     -31.444  10.072   0.185  1.00 20.00     0.013 A 
ENDBRANCH   7   9
ENDBRANCH   5   7
TORSDOF 2
