REMARK  3 active torsions:
REMARK  status: ('A' for Active; 'I' for Inactive)
REMARK    1  A    between atoms: C3_3  and  C9_9 
REMARK    2  A    between atoms: C7_7  and  O11_11 
REMARK    3  A    between atoms: C9_9  and  O11_11 
ROOT
HETATM    1  C1  UNL     1     -33.828   4.629   4.293  1.00 20.00     0.129 C 
HETATM    2  C4  UNL     1     -35.182   5.285   4.351  1.00 20.00     0.081 C 
HETATM    3  C5  UNL     1     -32.773   5.542   3.725  1.00 20.00     0.110 C 
HETATM    4  C6  UNL     1     -34.822   6.747   4.133  1.00 20.00     0.040 C 
HETATM    5  C7  UNL     1     -33.607   6.711   3.213  1.00 20.00     0.129 C 
HETATM    6  O10 UNL     1     -33.611   3.480   4.656  1.00 20.00    -0.298 OA
ENDROOT
BRANCH   5   7
HETATM    7  O11 UNL     1     -32.875   7.920   3.296  1.00 20.00    -0.382 OA
BRANCH   7   8
HETATM    8  C9  UNL     1     -31.966   8.052   2.213  1.00 20.00     0.195 C 
BRANCH   8   9
HETATM    9  C3  UNL     1     -32.716   8.527   1.012  1.00 20.00    -0.005 C 
HETATM   10  C2  UNL     1     -32.464   9.686   0.387  1.00 20.00    -0.033 C 
HETATM   11  C8  UNL     1     -33.215  10.166  -0.811  1.00 20.00     0.036 C 
ENDBRANCH   8   9
ENDBRANCH   7   8
ENDBRANCH   5   7
TORSDOF 3
