REMARK  3 active torsions:
REMARK  status: ('A' for Active; 'I' for Inactive)
REMARK    1  A    between atoms: C4_4  and  C9_9 
REMARK    2  A    between atoms: C7_7  and  C8_8 
REMARK    3  A    between atoms: C8_8  and  N11_11 
ROOT
HETATM    1  C1  UNL     1     -34.446   4.907   4.179  1.00 20.00     0.060 C 
HETATM    2  C7  UNL     1     -35.068   6.228   4.012  1.00 20.00     0.151 C 
HETATM    3  N10 UNL     1     -33.956   3.864   4.310  1.00 20.00    -0.197 NA
ENDROOT
BRANCH   2   4
HETATM    4  C8  UNL     1     -34.040   7.349   3.972  1.00 20.00     0.249 C 
BRANCH   4   5
HETATM    5  N11 UNL     1     -33.145   7.180   2.807  1.00 20.00    -0.069 N 
HETATM    6  C2  UNL     1     -32.124   8.245   2.736  1.00 20.00     0.241 C 
HETATM    7  C4  UNL     1     -32.393   8.315   1.218  1.00 20.00     0.041 C 
HETATM    8  C3  UNL     1     -33.759   7.685   1.562  1.00 20.00     0.241 C 
HETATM    9  H28 UNL     1     -32.756   6.231   2.719  1.00 20.00     0.279 HD
BRANCH   7  10
HETATM   10  C9  UNL     1     -32.414   9.692   0.590  1.00 20.00    -0.015 C 
HETATM   11  C5  UNL     1     -32.656   9.605  -0.920  1.00 20.00     0.010 C 
HETATM   12  C6  UNL     1     -33.480  10.578   1.242  1.00 20.00     0.010 C 
ENDBRANCH   7  10
ENDBRANCH   4   5
ENDBRANCH   2   4
TORSDOF 3
