REMARK  0 active torsions:
REMARK  status: ('A' for Active; 'I' for Inactive)
ROOT
HETATM    1  C1  UNL     1     -32.200   6.858   1.035  1.00 20.00     0.009 A 
HETATM    2  C2  UNL     1     -31.878   8.099   0.482  1.00 20.00     0.024 A 
HETATM    3  C3  UNL     1     -33.250   9.244   2.134  1.00 20.00     0.032 A 
HETATM    4  C4  UNL     1     -33.052   6.827   2.126  1.00 20.00    -0.050 A 
HETATM    5  C5  UNL     1     -33.566   8.009   2.678  1.00 20.00    -0.035 A 
HETATM    6  C6  UNL     1     -32.401   9.283   1.026  1.00 20.00     0.034 A 
HETATM    7  C7  UNL     1     -33.520   5.628   2.893  1.00 20.00     0.045 C 
HETATM    8  C8  UNL     1     -34.425   7.713   3.870  1.00 20.00     0.095 C 
HETATM    9  C9  UNL     1     -34.737   6.216   3.642  1.00 20.00     0.005 C 
HETATM   10  C10 UNL     1     -35.135   5.397   4.862  1.00 20.00     0.011 C 
HETATM   11 CL11 UNL     1     -31.984  10.799   0.323  1.00 20.00    -0.084 Cl
HETATM   12 BR12 UNL     1     -33.384   8.069   5.471  1.00 20.00    -0.086 Br
ENDROOT
TORSDOF 0
