REMARK  0 active torsions:
REMARK  status: ('A' for Active; 'I' for Inactive)
ROOT
HETATM    1  C1  UNL     1     -31.472   6.446   1.324  1.00 20.00     0.009 A 
HETATM    2  C2  UNL     1     -31.460   7.685   0.679  1.00 20.00     0.024 A 
HETATM    3  C3  UNL     1     -33.468   8.377   1.866  1.00 20.00     0.033 A 
HETATM    4  C4  UNL     1     -32.491   6.187   2.226  1.00 20.00    -0.050 A 
HETATM    5  C5  UNL     1     -33.477   7.144   2.500  1.00 20.00    -0.031 A 
HETATM    6  C6  UNL     1     -32.451   8.642   0.947  1.00 20.00     0.034 A 
HETATM    7  C7  UNL     1     -32.698   4.952   3.048  1.00 20.00     0.045 C 
HETATM    8  C8  UNL     1     -34.437   6.644   3.540  1.00 20.00     0.119 C 
HETATM    9  C9  UNL     1     -34.180   5.116   3.453  1.00 20.00     0.009 C 
HETATM   10  C10 UNL     1     -34.547   4.301   4.685  1.00 20.00     0.012 C 
HETATM   11 CL11 UNL     1     -32.407  10.162   0.138  1.00 20.00    -0.084 Cl
HETATM   12 CL12 UNL     1     -34.024   7.364   5.113  1.00 20.00    -0.119 Cl
ENDROOT
TORSDOF 0
