REMARK  1 active torsions:
REMARK  status: ('A' for Active; 'I' for Inactive)
REMARK    1  A    between atoms: C2_2  and  C3_3 
ROOT
HETATM    1  C1  UNL     1     -32.497   8.484   1.847  1.00 20.00    -0.034 C 
HETATM    2  C2  UNL     1     -32.539   9.549   1.032  1.00 20.00     0.194 C 
HETATM    3  C4  UNL     1     -32.498   8.623   3.341  1.00 20.00     0.038 C 
HETATM    4  C5  UNL     1     -32.500   7.073   1.309  1.00 20.00     0.042 C 
HETATM    5  C6  UNL     1     -33.664   7.869   3.991  1.00 20.00     0.009 C 
HETATM    6  C7  UNL     1     -33.174   6.046   2.252  1.00 20.00    -0.011 C 
HETATM    7  C8  UNL     1     -34.250   6.737   3.122  1.00 20.00    -0.014 C 
HETATM    8  C9  UNL     1     -32.129   5.274   3.067  1.00 20.00     0.010 C 
HETATM    9  C10 UNL     1     -35.052   5.758   3.981  1.00 20.00     0.010 C 
HETATM   10  F13 UNL     1     -32.582  10.776   1.593  1.00 20.00    -0.199 F 
ENDROOT
BRANCH   2  11
HETATM   11  C3  UNL     1     -32.539   9.423  -0.495  1.00 20.00     0.239 C 
HETATM   12  O11 UNL     1     -31.517   8.842  -0.963  1.00 20.00    -0.642 OA
HETATM   13  O12 UNL     1     -33.534   9.901  -1.108  1.00 20.00    -0.642 OA
ENDBRANCH   2  11
TORSDOF 1
