REMARK  0 active torsions:
REMARK  status: ('A' for Active; 'I' for Inactive)
ROOT
HETATM    1  C1  UNL     1     -32.626   5.367   1.565  1.00 20.00     0.009 A 
HETATM    2  C2  UNL     1     -31.878   6.165   0.697  1.00 20.00     0.024 A 
HETATM    3  C3  UNL     1     -32.586   8.178   1.866  1.00 20.00     0.033 A 
HETATM    4  C4  UNL     1     -33.353   5.988   2.566  1.00 20.00    -0.050 A 
HETATM    5  C5  UNL     1     -33.330   7.379   2.720  1.00 20.00    -0.031 A 
HETATM    6  C6  UNL     1     -31.859   7.561   0.846  1.00 20.00     0.034 A 
HETATM    7  C7  UNL     1     -34.200   5.344   3.621  1.00 20.00     0.045 C 
HETATM    8  C8  UNL     1     -34.163   7.804   3.892  1.00 20.00     0.119 C 
HETATM    9  C9  UNL     1     -35.032   6.544   4.133  1.00 20.00     0.009 C 
HETATM   10  C10 UNL     1     -36.365   6.647   3.377  1.00 20.00     0.012 C 
HETATM   11 CL11 UNL     1     -30.924   8.520  -0.237  1.00 20.00    -0.084 Cl
HETATM   12 CL12 UNL     1     -33.104   8.129   5.286  1.00 20.00    -0.119 Cl
ENDROOT
TORSDOF 0
