REMARK  0 active torsions:
REMARK  status: ('A' for Active; 'I' for Inactive)
ROOT
HETATM    1  C1  UNL     1     -31.845   6.539   0.477  1.00 20.00     0.009 A 
HETATM    2  C2  UNL     1     -32.016   7.888   0.160  1.00 20.00     0.019 A 
HETATM    3  C3  UNL     1     -33.348   8.233   2.167  1.00 20.00     0.028 A 
HETATM    4  C4  UNL     1     -32.442   6.053   1.628  1.00 20.00    -0.050 A 
HETATM    5  C5  UNL     1     -33.195   6.888   2.466  1.00 20.00    -0.032 A 
HETATM    6  C6  UNL     1     -32.760   8.729   1.001  1.00 20.00     0.011 A 
HETATM    7  C7  UNL     1     -32.353   4.666   2.186  1.00 20.00     0.045 C 
HETATM    8  C8  UNL     1     -33.674   6.127   3.666  1.00 20.00     0.119 C 
HETATM    9  C9  UNL     1     -33.534   4.665   3.179  1.00 20.00     0.009 C 
HETATM   10  C10 UNL     1     -33.332   3.675   4.318  1.00 20.00     0.012 C 
HETATM   11 CL11 UNL     1     -35.343   6.500   4.119  1.00 20.00    -0.119 Cl
HETATM   12 BR12 UNL     1     -32.977  10.552   0.545  1.00 20.00    -0.051 Br
ENDROOT
TORSDOF 0
