REMARK  2 active torsions:
REMARK  status: ('A' for Active; 'I' for Inactive)
REMARK    1  A    between atoms: C3_3  and  C9_9 
REMARK    2  A    between atoms: C7_7  and  C9_9 
ROOT
HETATM    1  C4  UNL     1     -33.617   7.583   3.705  1.00 20.00     0.006 C 
HETATM    2  C5  UNL     1     -34.025   6.397   4.585  1.00 20.00     0.020 C 
HETATM    3  C6  UNL     1     -33.118   5.494   2.571  1.00 20.00     0.025 C 
HETATM    4  C7  UNL     1     -33.267   6.997   2.328  1.00 20.00    -0.007 C 
HETATM    5  C8  UNL     1     -34.189   5.230   3.618  1.00 20.00     0.082 C 
HETATM    6 CL12 UNL     1     -33.985   3.662   4.411  1.00 20.00    -0.125 Cl
ENDROOT
BRANCH   4   7
HETATM    7  C9  UNL     1     -32.030   7.623   1.706  1.00 20.00     0.071 C 
BRANCH   7   8
HETATM    8  C3  UNL     1     -32.343   8.940   1.047  1.00 20.00     0.074 A 
HETATM    9  N10 UNL     1     -32.870   9.974   1.664  1.00 20.00    -0.258 NA
HETATM   10  C1  UNL     1     -33.018  11.007   0.758  1.00 20.00     0.124 A 
HETATM   11  C2  UNL     1     -32.602  10.743  -0.530  1.00 20.00     0.070 A 
HETATM   12  S11 UNL     1     -31.998   9.140  -0.623  1.00 20.00    -0.085 SA
ENDBRANCH   7   8
ENDBRANCH   4   7
TORSDOF 2
