REMARK  3 active torsions:
REMARK  status: ('A' for Active; 'I' for Inactive)
REMARK    1  A    between atoms: C1_1  and  C6_6 
REMARK    2  A    between atoms: C2_2  and  C7_7 
REMARK    3  A    between atoms: C5_5  and  C6_6 
ROOT
HETATM    1  C3  UNL     1     -33.023  10.611   0.640  1.00 20.00     0.124 A 
HETATM    2  C4  UNL     1     -32.855  10.329  -0.700  1.00 20.00     0.070 A 
HETATM    3  C5  UNL     1     -32.246   8.569   0.827  1.00 20.00     0.085 A 
HETATM    4  N8  UNL     1     -32.675   9.603   1.517  1.00 20.00    -0.257 NA
HETATM    5  S9  UNL     1     -32.235   8.741  -0.880  1.00 20.00    -0.084 SA
ENDROOT
BRANCH   3   6
HETATM    6  C6  UNL     1     -31.775   7.274   1.437  1.00 20.00     0.161 C 
BRANCH   6   7
HETATM    7  C1  UNL     1     -32.808   6.655   2.275  1.00 20.00    -0.099 C 
HETATM    8  C2  UNL     1     -33.657   6.150   2.960  1.00 20.00    -0.091 C 
BRANCH   8   9
HETATM    9  C7  UNL     1     -34.689   5.538   3.792  1.00 20.00     0.208 C 
HETATM   10 CL10 UNL     1     -36.217   6.403   3.541  1.00 20.00    -0.117 Cl
ENDBRANCH   8   9
ENDBRANCH   6   7
ENDBRANCH   3   6
TORSDOF 3
