REMARK  0 active torsions:
REMARK  status: ('A' for Active; 'I' for Inactive)
ROOT
HETATM    1  C1  UNL     1     -34.702   6.269   3.514  1.00 20.00     0.098 C 
HETATM    2  C2  UNL     1     -32.989   5.940   1.795  1.00 20.00     0.160 A 
HETATM    3  C3  UNL     1     -33.591   6.656   2.740  1.00 20.00     0.063 A 
HETATM    4  C4  UNL     1     -32.847   7.933   2.798  1.00 20.00     0.225 A 
HETATM    5  N5  UNL     1     -35.617   5.950   4.152  1.00 20.00    -0.192 NA
HETATM    6  N6  UNL     1     -31.933   6.600   1.225  1.00 20.00    -0.166 NA
HETATM    7  N7  UNL     1     -31.803   7.742   1.755  1.00 20.00    -0.188 NA
ENDROOT
TORSDOF 0
