REMARK  2 active torsions:
REMARK  status: ('A' for Active; 'I' for Inactive)
REMARK    1  A    between atoms: C2_2  and  C6_6 
REMARK    2  A    between atoms: C6_6  and  O10_10 
ROOT
HETATM    1  C3  UNL     1     -33.792   8.009   3.792  1.00 20.00     0.004 C 
HETATM    2  C4  UNL     1     -33.370   9.106   2.806  1.00 20.00     0.043 C 
HETATM    3  C5  UNL     1     -33.123   6.716   3.324  1.00 20.00     0.012 C 
HETATM    4  C6  UNL     1     -32.302   8.465   1.908  1.00 20.00     0.082 C 
HETATM    5  C7  UNL     1     -32.725   6.967   1.855  1.00 20.00    -0.013 C 
HETATM    6  C8  UNL     1     -31.594   6.018   1.433  1.00 20.00     0.018 C 
HETATM    7  C9  UNL     1     -33.941   6.706   0.940  1.00 20.00     0.018 C 
ENDROOT
BRANCH   4   8
HETATM    8  C2  UNL     1     -32.174   9.167   0.593  1.00 20.00     0.001 C 
HETATM    9  C1  UNL     1     -32.904  10.229   0.238  1.00 20.00     0.010 C 
ENDBRANCH   4   8
BRANCH   4  10
HETATM   10  O10 UNL     1     -31.055   8.597   2.607  1.00 20.00    -0.385 OA
HETATM   11  H26 UNL     1     -30.910   9.547   2.720  1.00 20.00     0.211 HD
ENDBRANCH   4  10
TORSDOF 2
