REMARK  2 active torsions:
REMARK  status: ('A' for Active; 'I' for Inactive)
REMARK    1  A    between atoms: C5_5  and  C9_9 
REMARK    2  A    between atoms: C5_5  and  O10_10 
ROOT
HETATM    1  C1  UNL     1     -32.237   6.968   1.502  1.00 20.00     0.004 C 
HETATM    2  C2  UNL     1     -32.084   7.932   2.681  1.00 20.00     0.012 C 
HETATM    3  C3  UNL     1     -33.477   6.119   1.785  1.00 20.00     0.038 C 
HETATM    4  C4  UNL     1     -33.427   7.889   3.433  1.00 20.00    -0.017 C 
HETATM    5  C5  UNL     1     -33.859   6.406   3.245  1.00 20.00     0.064 C 
HETATM    6  C6  UNL     1     -34.425   8.873   2.781  1.00 20.00     0.018 C 
HETATM    7  C7  UNL     1     -33.253   8.310   4.899  1.00 20.00     0.018 C 
ENDROOT
BRANCH   5   8
HETATM    8  C9  UNL     1     -33.166   5.405   4.179  1.00 20.00     0.034 C 
HETATM    9  C8  UNL     1     -33.558   3.997   3.868  1.00 20.00     0.008 C 
ENDBRANCH   5   8
BRANCH   5  10
HETATM   10  O10 UNL     1     -35.263   6.238   3.403  1.00 20.00    -0.389 OA
HETATM   11  H28 UNL     1     -35.451   5.319   3.165  1.00 20.00     0.210 HD
ENDBRANCH   5  10
TORSDOF 2
