REMARK  2 active torsions:
REMARK  status: ('A' for Active; 'I' for Inactive)
REMARK    1  A    between atoms: C6_6  and  N11_11 
REMARK    2  A    between atoms: C10_10  and  N11_11 
ROOT
HETATM    1  C1  UNL     1     -32.492   9.826  -0.255  1.00 20.00     0.013 C 
HETATM    2  C2  UNL     1     -32.311   9.076   0.665  1.00 20.00    -0.087 C 
HETATM    3  C10 UNL     1     -32.086   8.164   1.790  1.00 20.00     0.362 C 
ENDROOT
BRANCH   3   4
HETATM    4  N11 UNL     1     -32.806   6.913   1.590  1.00 20.00     0.099 N 
HETATM    5  H28 UNL     1     -32.274   6.320   0.953  1.00 20.00     0.317 HD
BRANCH   4   6
HETATM    6  C6  UNL     1     -32.998   6.214   2.851  1.00 20.00     0.229 C 
HETATM    7  C4  UNL     1     -33.301   4.728   2.655  1.00 20.00     0.036 C 
HETATM    8  C3  UNL     1     -34.005   4.293   3.943  1.00 20.00     0.003 C 
HETATM    9  C5  UNL     1     -34.293   5.572   4.736  1.00 20.00     0.011 C 
HETATM   10  C7  UNL     1     -34.167   6.725   3.722  1.00 20.00    -0.017 C 
HETATM   11  C8  UNL     1     -33.832   8.047   4.420  1.00 20.00     0.017 C 
HETATM   12  C9  UNL     1     -35.485   6.894   2.942  1.00 20.00     0.017 C 
ENDBRANCH   4   6
ENDBRANCH   3   4
TORSDOF 2
