REMARK  2 active torsions:
REMARK  status: ('A' for Active; 'I' for Inactive)
REMARK    1  A    between atoms: C3_3  and  C9_9 
REMARK    2  A    between atoms: C7_7  and  C9_9 
ROOT
HETATM    1  C4  UNL     1     -33.988   7.854   3.581  1.00 20.00     0.006 C 
HETATM    2  C5  UNL     1     -34.896   6.952   4.403  1.00 20.00     0.020 C 
HETATM    3  C6  UNL     1     -33.607   5.510   2.970  1.00 20.00     0.025 C 
HETATM    4  C7  UNL     1     -33.500   6.952   2.440  1.00 20.00    -0.007 C 
HETATM    5  C8  UNL     1     -34.124   5.642   4.402  1.00 20.00     0.082 C 
HETATM    6 CL12 UNL     1     -35.127   4.269   4.891  1.00 20.00    -0.125 Cl
ENDROOT
BRANCH   4   7
HETATM    7  C9  UNL     1     -32.098   7.313   1.974  1.00 20.00     0.071 C 
BRANCH   7   8
HETATM    8  C3  UNL     1     -32.102   8.505   1.054  1.00 20.00     0.074 A 
HETATM    9  N10 UNL     1     -31.630   8.500  -0.174  1.00 20.00    -0.258 NA
HETATM   10  C1  UNL     1     -31.797   9.757  -0.722  1.00 20.00     0.124 A 
HETATM   11  C2  UNL     1     -32.390  10.696   0.095  1.00 20.00     0.070 A 
HETATM   12  S11 UNL     1     -32.761   9.988   1.612  1.00 20.00    -0.085 SA
ENDBRANCH   7   8
ENDBRANCH   4   7
TORSDOF 2
