REMARK  0 active torsions:
REMARK  status: ('A' for Active; 'I' for Inactive)
ROOT
HETATM    1  C1  UNL     1     -32.426   8.080   2.551  1.00 20.00     0.035 C 
HETATM    2  C2  UNL     1     -33.105   7.277   3.674  1.00 20.00     0.014 C 
HETATM    3  C3  UNL     1     -32.352   7.130   1.397  1.00 20.00     0.152 A 
HETATM    4  C4  UNL     1     -33.308   6.016   1.629  1.00 20.00     0.158 A 
HETATM    5  C5  UNL     1     -34.016   6.250   2.946  1.00 20.00    -0.019 C 
HETATM    6  C6  UNL     1     -35.407   6.849   2.693  1.00 20.00     0.017 C 
HETATM    7  C7  UNL     1     -34.146   4.954   3.746  1.00 20.00     0.017 C 
HETATM    8  O8  UNL     1     -31.889   5.809   1.697  1.00 20.00    -0.375 OA
ENDROOT
TORSDOF 0
