REMARK  1 active torsions:
REMARK  status: ('A' for Active; 'I' for Inactive)
REMARK    1  A    between atoms: C1_1  and  C4_4 
ROOT
HETATM    1  C1  UNL     1     -32.805   7.272   1.961  1.00 20.00    -0.079 C 
HETATM    2  C2  UNL     1     -32.519   8.333   1.477  1.00 20.00    -0.106 C 
HETATM    3  C7  UNL     1     -32.172   9.625   0.888  1.00 20.00     0.112 C 
ENDROOT
BRANCH   1   4
HETATM    4  C4  UNL     1     -33.141   6.013   2.533  1.00 20.00     0.070 C 
HETATM    5  C3  UNL     1     -34.220   5.850   3.296  1.00 20.00    -0.017 C 
HETATM    6  C5  UNL     1     -34.834   4.688   4.026  1.00 20.00     0.306 C 
HETATM    7  C6  UNL     1     -35.325   6.751   3.773  1.00 20.00     0.306 C 
HETATM    8  N8  UNL     1     -35.659   5.683   4.728  1.00 20.00     0.091 N 
HETATM    9  H17 UNL     1     -36.650   5.454   4.787  1.00 20.00     0.316 HD
ENDBRANCH   1   4
TORSDOF 1
