REMARK  0 active torsions:
REMARK  status: ('A' for Active; 'I' for Inactive)
ROOT
HETATM    1  C1  UNL     1     -32.484   8.962   0.745  1.00 20.00     0.088 C 
HETATM    2  C2  UNL     1     -32.699   6.875   1.927  1.00 20.00    -0.062 C 
HETATM    3  C3  UNL     1     -32.412   7.550   0.801  1.00 20.00     0.097 C 
HETATM    4  C4  UNL     1     -33.109   7.641   3.168  1.00 20.00     0.036 C 
HETATM    5  C5  UNL     1     -34.435   7.132   3.725  1.00 20.00     0.004 C 
HETATM    6  C6  UNL     1     -34.405   5.626   3.963  1.00 20.00     0.001 C 
HETATM    7  C7  UNL     1     -34.006   4.870   2.695  1.00 20.00     0.013 C 
HETATM    8  C8  UNL     1     -32.668   5.346   2.068  1.00 20.00    -0.024 C 
HETATM    9  C9  UNL     1     -31.479   4.937   2.964  1.00 20.00     0.019 C 
HETATM   10  C10 UNL     1     -32.500   4.597   0.725  1.00 20.00     0.019 C 
HETATM   11  N11 UNL     1     -32.541  10.120   0.689  1.00 20.00    -0.192 NA
ENDROOT
TORSDOF 0
