REMARK  0 active torsions:
REMARK  status: ('A' for Active; 'I' for Inactive)
ROOT
HETATM    1  C1  UNL     1     -33.901   6.463   3.118  1.00 20.00    -0.081 C 
HETATM    2  C2  UNL     1     -34.761   5.712   3.819  1.00 20.00     0.015 C 
HETATM    3  C3  UNL     1     -33.280   6.009   1.824  1.00 20.00     0.034 C 
HETATM    4  C4  UNL     1     -32.121   6.977   1.632  1.00 20.00     0.005 C 
HETATM    5  C5  UNL     1     -32.636   8.278   2.234  1.00 20.00     0.013 C 
HETATM    6  C6  UNL     1     -33.400   7.846   3.503  1.00 20.00    -0.025 C 
HETATM    7  C7  UNL     1     -32.448   7.763   4.708  1.00 20.00     0.019 C 
HETATM    8  C8  UNL     1     -34.529   8.839   3.806  1.00 20.00     0.019 C 
ENDROOT
TORSDOF 0
