REMARK  1 active torsions:
REMARK  status: ('A' for Active; 'I' for Inactive)
REMARK    1  A    between atoms: C2_2  and  C5_5 
ROOT
HETATM    1  C1  UNL     1     -33.422   7.405   3.044  1.00 20.00     0.075 A 
HETATM    2  C2  UNL     1     -32.820   7.127   1.881  1.00 20.00     0.039 A 
HETATM    3  C3  UNL     1     -34.268   6.302   3.521  1.00 20.00     0.209 A 
HETATM    4  C4  UNL     1     -33.087   5.791   1.263  1.00 20.00     0.126 A 
HETATM    5  O6  UNL     1     -34.914   6.323   4.555  1.00 20.00    -0.281 OA
HETATM    6  S10 UNL     1     -34.226   4.954   2.404  1.00 20.00    -0.084 SA
ENDROOT
BRANCH   2   7
HETATM    7  C5  UNL     1     -31.906   8.069   1.169  1.00 20.00     0.414 C 
HETATM    8  F7  UNL     1     -31.446   7.527   0.021  1.00 20.00    -0.166 F 
HETATM    9  F8  UNL     1     -32.539   9.220   0.855  1.00 20.00    -0.166 F 
HETATM   10  F9  UNL     1     -30.837   8.384   1.931  1.00 20.00    -0.166 F 
ENDBRANCH   2   7
TORSDOF 1
