REMARK  1 active torsions:
REMARK  status: ('A' for Active; 'I' for Inactive)
REMARK    1  A    between atoms: C4_4  and  C9_9 
ROOT
HETATM    1  C1  UNL     1     -33.114   8.717   1.905  1.00 20.00     0.001 C 
HETATM    2  C2  UNL     1     -33.967   7.846   2.828  1.00 20.00     0.007 C 
HETATM    3  C3  UNL     1     -32.088   7.785   1.262  1.00 20.00     0.009 C 
HETATM    4  C4  UNL     1     -33.346   6.445   2.773  1.00 20.00     0.011 C 
HETATM    5  C5  UNL     1     -32.692   6.374   1.373  1.00 20.00    -0.043 C 
HETATM    6  C6  UNL     1     -33.698   6.130   0.234  1.00 20.00     0.015 C 
HETATM    7  C7  UNL     1     -31.598   5.303   1.306  1.00 20.00     0.015 C 
ENDROOT
BRANCH   4   8
HETATM    8  C9  UNL     1     -34.352   5.349   3.102  1.00 20.00     0.083 C 
HETATM    9  C8  UNL     1     -33.661   4.073   3.558  1.00 20.00     0.027 C 
HETATM   10 CL10 UNL     1     -35.458   5.919   4.384  1.00 20.00    -0.125 Cl
ENDBRANCH   4   8
TORSDOF 1
