REMARK  1 active torsions:
REMARK  status: ('A' for Active; 'I' for Inactive)
REMARK    1  A    between atoms: C4_4  and  C9_9 
ROOT
HETATM    1  C1  UNL     1     -34.282   6.549   3.665  1.00 20.00     0.001 C 
HETATM    2  C2  UNL     1     -33.661   7.845   3.142  1.00 20.00     0.007 C 
HETATM    3  C3  UNL     1     -34.171   5.531   2.531  1.00 20.00     0.009 C 
HETATM    4  C4  UNL     1     -33.296   7.573   1.678  1.00 20.00     0.011 C 
HETATM    5  C5  UNL     1     -33.037   6.049   1.628  1.00 20.00    -0.043 C 
HETATM    6  C6  UNL     1     -31.667   5.637   2.197  1.00 20.00     0.015 C 
HETATM    7  C7  UNL     1     -33.172   5.491   0.207  1.00 20.00     0.015 C 
ENDROOT
BRANCH   4   8
HETATM    8  C9  UNL     1     -32.164   8.465   1.186  1.00 20.00     0.083 C 
HETATM    9  C8  UNL     1     -31.106   8.670   2.259  1.00 20.00     0.027 C 
HETATM   10 CL10 UNL     1     -32.824  10.047   0.685  1.00 20.00    -0.125 Cl
ENDBRANCH   4   8
TORSDOF 1
