REMARK  2 active torsions:
REMARK  status: ('A' for Active; 'I' for Inactive)
REMARK    1  A    between atoms: C1_1  and  C5_5 
REMARK    2  A    between atoms: C1_1  and  C10_10 
ROOT
HETATM    1  C2  UNL     1     -32.483   8.702   2.943  1.00 20.00     0.002 C 
HETATM    2  C3  UNL     1     -33.303   7.924   3.973  1.00 20.00     0.013 C 
HETATM    3  C4  UNL     1     -32.003   7.669   1.929  1.00 20.00     0.010 C 
HETATM    4  C5  UNL     1     -33.401   6.488   3.448  1.00 20.00     0.063 C 
HETATM    5  C6  UNL     1     -33.090   6.581   1.939  1.00 20.00    -0.037 C 
HETATM    6  C7  UNL     1     -34.297   7.022   1.089  1.00 20.00     0.015 C 
HETATM    7  C8  UNL     1     -32.549   5.258   1.387  1.00 20.00     0.015 C 
ENDROOT
BRANCH   4   8
HETATM    8  C1  UNL     1     -34.727   5.865   3.758  1.00 20.00     0.131 C 
HETATM    9  O11 UNL     1     -35.771   6.345   3.319  1.00 20.00    -0.298 OA
BRANCH   8  10
HETATM   10  C10 UNL     1     -34.694   4.625   4.634  1.00 20.00     0.074 C 
HETATM   11  C9  UNL     1     -33.913   3.486   4.005  1.00 20.00     0.013 C 
ENDBRANCH   8  10
ENDBRANCH   4   8
TORSDOF 2
