REMARK  0 active torsions:
REMARK  status: ('A' for Active; 'I' for Inactive)
ROOT
HETATM    1  C1  UNL     1     -33.721   4.631   3.676  1.00 20.00     0.086 C 
HETATM    2  C2  UNL     1     -33.037   8.409   3.484  1.00 20.00     0.003 C 
HETATM    3  C3  UNL     1     -32.331   8.447   2.135  1.00 20.00     0.001 C 
HETATM    4  C4  UNL     1     -33.124   6.992   4.051  1.00 20.00     0.042 C 
HETATM    5  C5  UNL     1     -32.935   7.459   1.138  1.00 20.00     0.012 C 
HETATM    6  C6  UNL     1     -33.737   5.975   3.064  1.00 20.00     0.132 C 
HETATM    7  C7  UNL     1     -33.003   6.001   1.672  1.00 20.00    -0.013 C 
HETATM    8  C8  UNL     1     -31.556   5.449   1.788  1.00 20.00     0.018 C 
HETATM    9  C9  UNL     1     -33.716   5.135   0.604  1.00 20.00     0.018 C 
HETATM   10  N10 UNL     1     -33.709   3.575   4.157  1.00 20.00    -0.195 NA
HETATM   11 CL11 UNL     1     -35.499   6.371   2.890  1.00 20.00    -0.102 Cl
ENDROOT
TORSDOF 0
