REMARK  0 active torsions:
REMARK  status: ('A' for Active; 'I' for Inactive)
ROOT
HETATM    1  C1  UNL     1     -34.873   4.909   4.137  1.00 20.00     0.021 C 
HETATM    2  C2  UNL     1     -35.055   6.204   3.831  1.00 20.00     0.001 C 
HETATM    3  C3  UNL     1     -32.599   4.880   3.291  1.00 20.00     0.003 C 
HETATM    4  C4  UNL     1     -33.575   4.291   4.001  1.00 20.00     0.030 C 
HETATM    5  C5  UNL     1     -32.815   6.214   2.596  1.00 20.00     0.033 C 
HETATM    6  C6  UNL     1     -33.911   7.067   3.330  1.00 20.00     0.058 C 
HETATM    7  C7  UNL     1     -33.111   5.907   1.119  1.00 20.00     0.016 C 
HETATM    8  C8  UNL     1     -33.297   7.797   4.540  1.00 20.00     0.037 C 
HETATM    9 CL9  UNL     1     -33.326   2.751   4.735  1.00 20.00    -0.085 Cl
HETATM   10 CL10 UNL     1     -34.593   8.340   2.250  1.00 20.00    -0.115 Cl
ENDROOT
TORSDOF 0
