REMARK  1 active torsions:
REMARK  status: ('A' for Active; 'I' for Inactive)
REMARK    1  A    between atoms: C5_5  and  O9_9 
ROOT
HETATM    1  C1  UNL     1     -33.822   6.684   3.097  1.00 20.00     0.098 C 
HETATM    2  C2  UNL     1     -33.563   7.876   0.937  1.00 20.00     0.069 C 
HETATM    3  C3  UNL     1     -31.787   8.000   2.615  1.00 20.00     0.128 C 
HETATM    4  C4  UNL     1     -32.463   8.441   0.040  1.00 20.00     0.047 C 
HETATM    5  C5  UNL     1     -32.872   7.084   2.050  1.00 20.00     0.157 C 
HETATM    6  C6  UNL     1     -32.938   9.612  -0.804  1.00 20.00     0.021 C 
HETATM    7  N8  UNL     1     -34.573   6.368   3.923  1.00 20.00    -0.194 NA
HETATM    8  S10 UNL     1     -31.147   8.943   1.194  1.00 20.00    -0.161 SA
ENDROOT
BRANCH   5   9
HETATM    9  O9  UNL     1     -32.254   5.915   1.512  1.00 20.00    -0.369 OA
HETATM   10  C7  UNL     1     -33.215   5.037   0.945  1.00 20.00     0.204 C 
ENDBRANCH   5   9
TORSDOF 1
