REMARK  0 active torsions:
REMARK  status: ('A' for Active; 'I' for Inactive)
ROOT
HETATM    1  C1  UNL     1     -34.708   5.221   4.034  1.00 20.00     0.086 C 
HETATM    2  C2  UNL     1     -33.185   6.174   2.324  1.00 20.00     0.056 C 
HETATM    3  C3  UNL     1     -33.702   7.463   4.332  1.00 20.00     0.115 C 
HETATM    4  C4  UNL     1     -32.631   7.521   1.855  1.00 20.00     0.046 C 
HETATM    5  C5  UNL     1     -34.288   6.450   3.350  1.00 20.00     0.135 C 
HETATM    6  C6  UNL     1     -31.230   7.407   1.276  1.00 20.00     0.021 C 
HETATM    7  N7  UNL     1     -35.040   4.249   4.575  1.00 20.00    -0.195 NA
HETATM    8  S8  UNL     1     -32.648   8.571   3.345  1.00 20.00    -0.162 SA
HETATM    9 CL9  UNL     1     -35.754   7.114   2.552  1.00 20.00    -0.102 Cl
ENDROOT
TORSDOF 0
