REMARK  0 active torsions:
REMARK  status: ('A' for Active; 'I' for Inactive)
ROOT
HETATM    1  C1  UNL     1     -32.402   8.721   0.674  1.00 20.00     0.086 C 
HETATM    2  C2  UNL     1     -34.157   8.111   2.315  1.00 20.00     0.056 C 
HETATM    3  C3  UNL     1     -31.805   8.130   2.997  1.00 20.00     0.115 C 
HETATM    4  C4  UNL     1     -34.335   7.526   3.720  1.00 20.00     0.046 C 
HETATM    5  C5  UNL     1     -32.730   7.854   1.815  1.00 20.00     0.135 C 
HETATM    6  C6  UNL     1     -34.956   6.136   3.747  1.00 20.00     0.021 C 
HETATM    7  N7  UNL     1     -32.144   9.406  -0.227  1.00 20.00    -0.195 NA
HETATM    8  S8  UNL     1     -32.673   7.507   4.465  1.00 20.00    -0.162 SA
HETATM    9 CL9  UNL     1     -32.529   6.172   1.227  1.00 20.00    -0.102 Cl
ENDROOT
TORSDOF 0
