REMARK  0 active torsions:
REMARK  status: ('A' for Active; 'I' for Inactive)
ROOT
HETATM    1  C1  UNL     1     -32.704   7.364   1.755  1.00 20.00    -0.053 C 
HETATM    2  C2  UNL     1     -32.322   8.368   0.958  1.00 20.00     0.017 C 
HETATM    3  C3  UNL     1     -33.096   7.516   3.185  1.00 20.00     0.073 C 
HETATM    4  C4  UNL     1     -32.917   5.923   1.378  1.00 20.00     0.077 C 
HETATM    5  C5  UNL     1     -34.163   6.432   3.315  1.00 20.00     0.059 C 
HETATM    6  C6  UNL     1     -33.617   5.713   0.034  1.00 20.00     0.051 C 
HETATM    7  C7  UNL     1     -31.605   5.137   1.422  1.00 20.00     0.051 C 
HETATM    8  C8  UNL     1     -34.213   5.856   4.728  1.00 20.00     0.046 C 
HETATM    9  C9  UNL     1     -35.556   6.931   2.910  1.00 20.00     0.046 C 
HETATM   10  O10 UNL     1     -33.771   5.377   2.413  1.00 20.00    -0.366 OA
ENDROOT
TORSDOF 0
