REMARK  1 active torsions:
REMARK  status: ('A' for Active; 'I' for Inactive)
REMARK    1  A    between atoms: C2_2  and  C3_3 
ROOT
HETATM    1  C1  UNL     1     -32.684   8.217   1.926  1.00 20.00    -0.063 C 
HETATM    2  C2  UNL     1     -33.073   9.294   1.227  1.00 20.00     0.088 C 
HETATM    3  C4  UNL     1     -33.287   7.876   3.263  1.00 20.00     0.044 C 
HETATM    4  C5  UNL     1     -31.628   7.281   1.403  1.00 20.00     0.108 C 
HETATM    5  C6  UNL     1     -33.696   5.579   2.135  1.00 20.00     0.083 C 
HETATM    6  C7  UNL     1     -34.181   6.607   3.191  1.00 20.00    -0.036 C 
HETATM    7  C8  UNL     1     -35.626   7.013   2.831  1.00 20.00     0.016 C 
HETATM    8  C9  UNL     1     -34.209   5.951   4.586  1.00 20.00     0.016 C 
HETATM    9  S12 UNL     1     -31.888   5.551   1.916  1.00 20.00    -0.164 SA
ENDROOT
BRANCH   2  10
HETATM   10  C3  UNL     1     -32.457   9.638  -0.133  1.00 20.00     0.198 C 
HETATM   11  O10 UNL     1     -32.612   8.735  -1.007  1.00 20.00    -0.644 OA
HETATM   12  O11 UNL     1     -31.874  10.753  -0.236  1.00 20.00    -0.644 OA
ENDBRANCH   2  10
TORSDOF 1
