REMARK  2 active torsions:
REMARK  status: ('A' for Active; 'I' for Inactive)
REMARK    1  A    between atoms: C5_5  and  N9_9 
REMARK    2  A    between atoms: C8_8  and  N9_9 
ROOT
HETATM    1  C1  UNL     1     -32.638   3.257   5.489  1.00 20.00     0.013 C 
HETATM    2  C2  UNL     1     -33.583   3.789   4.974  1.00 20.00    -0.087 C 
HETATM    3  C8  UNL     1     -34.739   4.433   4.345  1.00 20.00     0.362 C 
ENDROOT
BRANCH   3   4
HETATM    4  N9  UNL     1     -34.574   5.881   4.326  1.00 20.00     0.099 N 
HETATM    5  H23 UNL     1     -35.389   6.306   3.884  1.00 20.00     0.317 HD
BRANCH   4   6
HETATM    6  C5  UNL     1     -33.391   6.254   3.596  1.00 20.00     0.232 C 
HETATM    7  C3  UNL     1     -33.434   7.712   3.148  1.00 20.00     0.051 C 
HETATM    8  C6  UNL     1     -32.215   7.922   2.255  1.00 20.00     0.045 C 
HETATM    9  C7  UNL     1     -32.350   9.136   1.352  1.00 20.00     0.021 C 
HETATM   10  S10 UNL     1     -32.085   6.382   1.288  1.00 20.00    -0.162 SA
HETATM   11  C4  UNL     1     -33.226   5.427   2.328  1.00 20.00     0.109 C 
ENDBRANCH   4   6
ENDBRANCH   3   4
TORSDOF 2
