REMARK  1 active torsions:
REMARK  status: ('A' for Active; 'I' for Inactive)
REMARK    1  A    between atoms: C4_4  and  S9_9 
ROOT
HETATM    1  C1  UNL     1     -32.295   7.871   2.540  1.00 20.00     0.020 C 
HETATM    2  C2  UNL     1     -32.100   7.229   1.172  1.00 20.00     0.075 C 
HETATM    3  C3  UNL     1     -33.822   5.273   2.063  1.00 20.00     0.089 C 
HETATM    4  C4  UNL     1     -33.896   6.069   3.373  1.00 20.00     0.061 C 
HETATM    5  C5  UNL     1     -33.673   7.608   3.211  1.00 20.00    -0.034 C 
HETATM    6  C6  UNL     1     -34.784   8.293   2.383  1.00 20.00     0.016 C 
HETATM    7  C7  UNL     1     -33.632   8.296   4.597  1.00 20.00     0.016 C 
HETATM    8  S8  UNL     1     -32.201   5.425   1.259  1.00 20.00    -0.168 SA
ENDROOT
BRANCH   4   9
HETATM    9  S9  UNL     1     -35.493   5.633   4.181  1.00 20.00    -0.176 SA
HETATM   10  H23 UNL     1     -35.215   4.329   4.280  1.00 20.00     0.102 HD
ENDBRANCH   4   9
TORSDOF 1
