REMARK  2 active torsions:
REMARK  status: ('A' for Active; 'I' for Inactive)
REMARK    1  A    between atoms: C1_1  and  C5_5 
REMARK    2  A    between atoms: C1_1  and  C8_8 
ROOT
HETATM    1  C2  UNL     1     -35.116   6.256   3.844  1.00 20.00     0.084 C 
HETATM    2  C3  UNL     1     -34.081   5.215   3.452  1.00 20.00     0.085 C 
HETATM    3  C4  UNL     1     -32.881   7.911   3.474  1.00 20.00     0.096 C 
HETATM    4  C5  UNL     1     -33.084   7.429   2.045  1.00 20.00     0.126 C 
HETATM    5  S10 UNL     1     -34.389   7.796   4.489  1.00 20.00    -0.167 SA
HETATM    6  S11 UNL     1     -33.206   5.615   1.906  1.00 20.00    -0.155 SA
ENDROOT
BRANCH   4   7
HETATM    7  C1  UNL     1     -31.910   7.832   1.207  1.00 20.00     0.144 C 
HETATM    8  O9  UNL     1     -30.771   7.481   1.511  1.00 20.00    -0.296 OA
BRANCH   7   9
HETATM    9  C8  UNL     1     -32.198   8.717  -0.003  1.00 20.00     0.048 C 
HETATM   10  C6  UNL     1     -32.857  10.015   0.447  1.00 20.00     0.017 C 
HETATM   11  C7  UNL     1     -30.920   9.000  -0.789  1.00 20.00     0.017 C 
ENDBRANCH   7   9
ENDBRANCH   4   7
TORSDOF 2
