REMARK  3 active torsions:
REMARK  status: ('A' for Active; 'I' for Inactive)
REMARK    1  A    between atoms: C6_6  and  C9_9 
REMARK    2  A    between atoms: C6_6  and  O10_10 
REMARK    3  A    between atoms: C8_8  and  C9_9 
ROOT
HETATM    1  C1  UNL     1     -32.422  10.205  -0.274  1.00 20.00     0.012 C 
HETATM    2  C2  UNL     1     -32.451   9.264   0.470  1.00 20.00    -0.117 C 
HETATM    3  C8  UNL     1     -32.483   8.111   1.380  1.00 20.00     0.096 C 
ENDROOT
BRANCH   3   4
HETATM    4  C9  UNL     1     -33.767   8.115   2.187  1.00 20.00     0.050 C 
BRANCH   4   5
HETATM    5  C6  UNL     1     -33.810   6.926   3.145  1.00 20.00     0.068 C 
HETATM    6  C3  UNL     1     -33.689   5.593   2.398  1.00 20.00     0.053 C 
HETATM    7  C5  UNL     1     -34.052   4.456   3.356  1.00 20.00     0.046 C 
HETATM    8  C7  UNL     1     -32.873   3.925   4.162  1.00 20.00     0.021 C 
HETATM    9  S11 UNL     1     -35.316   5.155   4.466  1.00 20.00    -0.162 SA
HETATM   10  C4  UNL     1     -35.127   6.878   3.912  1.00 20.00     0.112 C 
BRANCH   5  11
HETATM   11  O10 UNL     1     -32.737   7.083   4.073  1.00 20.00    -0.389 OA
HETATM   12  H25 UNL     1     -32.873   7.939   4.507  1.00 20.00     0.210 HD
ENDBRANCH   5  11
ENDBRANCH   4   5
ENDBRANCH   3   4
TORSDOF 3
