REMARK  0 active torsions:
REMARK  status: ('A' for Active; 'I' for Inactive)
ROOT
HETATM    1  C1  UNL     1     -33.394   7.423   3.381  1.00 20.00     0.056 C 
HETATM    2  C2  UNL     1     -33.942   6.169   2.744  1.00 20.00     0.094 C 
HETATM    3  C3  UNL     1     -32.549   8.012   2.250  1.00 20.00     0.056 C 
HETATM    4  C4  UNL     1     -32.774   5.685   1.887  1.00 20.00     0.068 C 
HETATM    5  C5  UNL     1     -33.362   8.957   1.362  1.00 20.00     0.045 C 
HETATM    6  C6  UNL     1     -31.307   8.724   2.777  1.00 20.00     0.045 C 
HETATM    7  C7  UNL     1     -31.690   4.881   2.617  1.00 20.00     0.047 C 
HETATM    8  C8  UNL     1     -33.247   4.915   0.655  1.00 20.00     0.047 C 
HETATM    9  O9  UNL     1     -32.130   6.901   1.429  1.00 20.00    -0.369 OA
HETATM   10 BR10 UNL     1     -34.594   4.915   4.057  1.00 20.00    -0.088 Br
ENDROOT
TORSDOF 0
