REMARK  0 active torsions:
REMARK  status: ('A' for Active; 'I' for Inactive)
ROOT
HETATM    1  C1  UNL     1     -32.441   9.214  -0.078  1.00 20.00     0.088 C 
HETATM    2  C2  UNL     1     -32.504   7.238   1.297  1.00 20.00    -0.057 C 
HETATM    3  C3  UNL     1     -32.464   7.808   0.082  1.00 20.00     0.097 C 
HETATM    4  C4  UNL     1     -32.527   8.077   2.551  1.00 20.00     0.037 C 
HETATM    5  C5  UNL     1     -33.765   7.802   3.405  1.00 20.00     0.014 C 
HETATM    6  C6  UNL     1     -33.896   6.341   3.823  1.00 20.00     0.075 C 
HETATM    7  C7  UNL     1     -32.533   5.735   1.460  1.00 20.00     0.072 C 
HETATM    8  C8  UNL     1     -31.268   5.180   2.113  1.00 20.00     0.026 C 
HETATM    9  N9  UNL     1     -32.423  10.366  -0.218  1.00 20.00    -0.192 NA
HETATM   10  S10 UNL     1     -34.029   5.232   2.387  1.00 20.00    -0.160 SA
ENDROOT
TORSDOF 0
