REMARK  1 active torsions:
REMARK  status: ('A' for Active; 'I' for Inactive)
REMARK    1  A    between atoms: C6_6  and  O10_10 
ROOT
HETATM    1  C1  UNL     1     -31.885   8.915   0.007  1.00 20.00     0.015 C 
HETATM    2  C2  UNL     1     -32.250   8.329   0.989  1.00 20.00    -0.077 C 
HETATM    3  C3  UNL     1     -33.608   5.390   3.135  1.00 20.00     0.023 C 
HETATM    4  C4  UNL     1     -34.813   6.026   3.819  1.00 20.00     0.075 C 
HETATM    5  C5  UNL     1     -33.837   8.422   2.850  1.00 20.00     0.126 C 
HETATM    6  C6  UNL     1     -32.701   7.607   2.201  1.00 20.00     0.135 C 
HETATM    7  C7  UNL     1     -33.104   6.127   1.862  1.00 20.00    -0.004 C 
HETATM    8  C8  UNL     1     -31.879   5.329   1.343  1.00 20.00     0.019 C 
HETATM    9  C9  UNL     1     -34.194   6.058   0.765  1.00 20.00     0.019 C 
HETATM   10  S11 UNL     1     -34.460   7.702   4.400  1.00 20.00    -0.165 SA
ENDROOT
BRANCH   6  11
HETATM   11  O10 UNL     1     -31.597   7.581   3.118  1.00 20.00    -0.376 OA
HETATM   12  H25 UNL     1     -31.382   8.506   3.304  1.00 20.00     0.211 HD
ENDBRANCH   6  11
TORSDOF 1
