REMARK  3 active torsions:
REMARK  status: ('A' for Active; 'I' for Inactive)
REMARK    1  A    between atoms: C6_6  and  C9_9 
REMARK    2  A    between atoms: C6_6  and  O10_10 
REMARK    3  A    between atoms: C8_8  and  C9_9 
ROOT
HETATM    1  C1  UNL     1     -32.790  10.798  -0.200  1.00 20.00     0.012 C 
HETATM    2  C2  UNL     1     -32.541   9.808   0.431  1.00 20.00    -0.117 C 
HETATM    3  C8  UNL     1     -32.230   8.598   1.204  1.00 20.00     0.096 C 
ENDROOT
BRANCH   3   4
HETATM    4  C9  UNL     1     -33.503   7.831   1.513  1.00 20.00     0.050 C 
BRANCH   4   5
HETATM    5  C6  UNL     1     -33.196   6.572   2.324  1.00 20.00     0.068 C 
HETATM    6  C3  UNL     1     -32.562   6.846   3.693  1.00 20.00     0.053 C 
HETATM    7  C5  UNL     1     -33.641   7.200   4.715  1.00 20.00     0.046 C 
HETATM    8  C7  UNL     1     -33.857   8.696   4.898  1.00 20.00     0.021 C 
HETATM    9  S11 UNL     1     -35.159   6.383   4.128  1.00 20.00    -0.162 SA
HETATM   10  C4  UNL     1     -34.442   5.733   2.594  1.00 20.00     0.112 C 
BRANCH   5  11
HETATM   11  O10 UNL     1     -32.285   5.784   1.554  1.00 20.00    -0.389 OA
HETATM   12  H25 UNL     1     -32.713   5.629   0.700  1.00 20.00     0.210 HD
ENDBRANCH   5  11
ENDBRANCH   4   5
ENDBRANCH   3   4
TORSDOF 3
