REMARK  0 active torsions:
REMARK  status: ('A' for Active; 'I' for Inactive)
ROOT
HETATM    1  C1  UNL     1     -34.587   6.122   3.682  1.00 20.00     0.067 C 
HETATM    2  C2  UNL     1     -33.261   7.962   2.668  1.00 20.00     0.059 C 
HETATM    3  C3  UNL     1     -33.279   6.527   3.160  1.00 20.00     0.129 C 
HETATM    4  C4  UNL     1     -32.037   7.984   1.751  1.00 20.00     0.056 C 
HETATM    5  C5  UNL     1     -32.803   5.756   1.920  1.00 20.00     0.071 C 
HETATM    6  C6  UNL     1     -32.228   8.929   0.569  1.00 20.00     0.045 C 
HETATM    7  C7  UNL     1     -30.758   8.344   2.511  1.00 20.00     0.045 C 
HETATM    8  C8  UNL     1     -32.045   4.483   2.295  1.00 20.00     0.047 C 
HETATM    9  C9  UNL     1     -33.906   5.422   0.906  1.00 20.00     0.047 C 
HETATM   10  N10 UNL     1     -35.623   5.801   4.096  1.00 20.00    -0.197 NA
HETATM   11  O11 UNL     1     -31.880   6.643   1.247  1.00 20.00    -0.369 OA
ENDROOT
TORSDOF 0
