REMARK  0 active torsions:
REMARK  status: ('A' for Active; 'I' for Inactive)
ROOT
HETATM    1  C1  UNL     1     -32.910   9.421   0.404  1.00 20.00     0.064 C 
HETATM    2  C2  UNL     1     -34.986   4.402   4.460  1.00 20.00     0.000 C 
HETATM    3  C3  UNL     1     -35.265   5.883   4.688  1.00 20.00     0.003 C 
HETATM    4  C4  UNL     1     -33.606   4.177   3.854  1.00 20.00     0.003 C 
HETATM    5  C5  UNL     1     -35.066   6.694   3.407  1.00 20.00     0.038 C 
HETATM    6  C6  UNL     1     -33.405   5.004   2.582  1.00 20.00     0.038 C 
HETATM    7  C7  UNL     1     -32.932   9.252   2.866  1.00 20.00     0.045 C 
HETATM    8  C8  UNL     1     -33.504   7.261   1.457  1.00 20.00     0.057 C 
HETATM    9  C9  UNL     1     -32.653   8.339   4.056  1.00 20.00     0.170 C 
HETATM   10  C10 UNL     1     -32.654   8.536   1.552  1.00 20.00     0.097 C 
HETATM   11  C11 UNL     1     -33.650   6.514   2.808  1.00 20.00     0.062 C 
HETATM   12  N12 UNL     1     -33.112  10.119  -0.500  1.00 20.00    -0.197 NA
HETATM   13  O13 UNL     1     -32.636   6.953   3.722  1.00 20.00    -0.380 OA
ENDROOT
TORSDOF 0
