REMARK  1 active torsions:
REMARK  status: ('A' for Active; 'I' for Inactive)
REMARK    1  A    between atoms: C4_4  and  S9_9 
ROOT
HETATM    1  C1  UNL     1     -32.942   8.025   3.525  1.00 20.00     0.025 C 
HETATM    2  C2  UNL     1     -31.374   6.735   1.946  1.00 20.00     0.088 C 
HETATM    3  C3  UNL     1     -33.679   5.636   2.953  1.00 20.00     0.082 C 
HETATM    4  C4  UNL     1     -31.890   8.099   2.405  1.00 20.00     0.054 C 
HETATM    5  C5  UNL     1     -34.139   7.047   3.370  1.00 20.00    -0.038 C 
HETATM    6  C6  UNL     1     -35.209   7.587   2.400  1.00 20.00     0.015 C 
HETATM    7  C7  UNL     1     -34.822   6.929   4.755  1.00 20.00     0.015 C 
HETATM    8  S8  UNL     1     -32.690   5.598   1.429  1.00 20.00    -0.167 SA
ENDROOT
BRANCH   4   9
HETATM    9  S9  UNL     1     -32.411   9.139   0.991  1.00 20.00    -0.177 SA
HETATM   10  H23 UNL     1     -32.550  10.261   1.707  1.00 20.00     0.102 HD
ENDBRANCH   4   9
TORSDOF 1
