REMARK  3 active torsions:
REMARK  status: ('A' for Active; 'I' for Inactive)
REMARK    1  A    between atoms: C4_4  and  C7_7 
REMARK    2  A    between atoms: C4_4  and  O9_9 
REMARK    3  A    between atoms: C7_7  and  C8_8 
ROOT
HETATM    1  C1  UNL     1     -33.496   6.171   2.749  1.00 20.00     0.053 C 
HETATM    2  C2  UNL     1     -32.701   8.229   3.803  1.00 20.00     0.112 C 
HETATM    3  C3  UNL     1     -34.787   6.549   3.466  1.00 20.00     0.046 C 
HETATM    4  C4  UNL     1     -32.712   7.460   2.481  1.00 20.00     0.067 C 
HETATM    5  C5  UNL     1     -35.401   5.382   4.221  1.00 20.00     0.021 C 
HETATM    6  S10 UNL     1     -34.299   7.888   4.601  1.00 20.00    -0.162 SA
ENDROOT
BRANCH   4   7
HETATM    7  C7  UNL     1     -33.301   8.283   1.333  1.00 20.00     0.038 C 
BRANCH   7   8
HETATM    8  C8  UNL     1     -32.287   9.287   0.795  1.00 20.00    -0.002 C 
HETATM    9  C6  UNL     1     -32.864  10.086  -0.363  1.00 20.00     0.005 C 
ENDBRANCH   7   8
ENDBRANCH   4   7
BRANCH   4  10
HETATM   10  O9  UNL     1     -31.375   7.129   2.108  1.00 20.00    -0.389 OA
HETATM   11  H26 UNL     1     -31.440   6.588   1.306  1.00 20.00     0.210 HD
ENDBRANCH   4  10
TORSDOF 3
