REMARK  1 active torsions:
REMARK  status: ('A' for Active; 'I' for Inactive)
REMARK    1  A    between atoms: C7_7  and  C11_11 
ROOT
HETATM    1  C1  UNL     1     -32.225  10.380  -0.165  1.00 20.00     0.030 C 
HETATM    2  C2  UNL     1     -32.057   8.995  -0.764  1.00 20.00     0.036 C 
HETATM    3  C3  UNL     1     -32.565   6.695   0.227  1.00 20.00     0.305 C 
HETATM    4  C4  UNL     1     -33.173  10.131   0.989  1.00 20.00     0.235 C 
HETATM    5  C5  UNL     1     -33.746   8.015   2.258  1.00 20.00     0.271 C 
HETATM    6  C6  UNL     1     -31.953   8.076   0.451  1.00 20.00     0.216 C 
HETATM    7  C7  UNL     1     -33.145   6.653   2.624  1.00 20.00     0.251 C 
HETATM    8  C10 UNL     1     -31.445   5.162   1.737  1.00 20.00     0.310 C 
HETATM    9  N12 UNL     1     -32.681   5.889   1.448  1.00 20.00     0.092 N 
HETATM   10  N13 UNL     1     -32.687   8.819   1.558  1.00 20.00    -0.063 N 
HETATM   11  H36 UNL     1     -31.956   9.038   2.306  1.00 20.00     0.280 HD
ENDROOT
BRANCH   7  12
HETATM   12  C11 UNL     1     -34.187   5.815   3.369  1.00 20.00     0.012 C 
HETATM   13  C8  UNL     1     -33.617   4.444   3.710  1.00 20.00     0.012 C 
HETATM   14  C9  UNL     1     -34.647   6.542   4.628  1.00 20.00     0.012 C 
ENDBRANCH   7  12
TORSDOF 1
