REMARK  2 active torsions:
REMARK  status: ('A' for Active; 'I' for Inactive)
REMARK    1  A    between atoms: C2_2  and  C6_6 
REMARK    2  A    between atoms: C6_6  and  O9_9 
ROOT
HETATM    1  C3  UNL     1     -33.965   7.354   1.951  1.00 20.00     0.058 C 
HETATM    2  C4  UNL     1     -32.648   8.913   3.304  1.00 20.00     0.116 C 
HETATM    3  C5  UNL     1     -34.206   6.708   3.315  1.00 20.00     0.046 C 
HETATM    4  C6  UNL     1     -32.615   8.073   2.026  1.00 20.00     0.089 C 
HETATM    5  C8  UNL     1     -35.668   6.376   3.557  1.00 20.00     0.021 C 
HETATM    6  S10 UNL     1     -33.594   7.934   4.514  1.00 20.00    -0.161 SA
ENDROOT
BRANCH   4   7
HETATM    7  C2  UNL     1     -32.374   8.905   0.806  1.00 20.00    -0.058 C 
HETATM    8  C1  UNL     1     -32.760  10.187   0.734  1.00 20.00     0.017 C 
HETATM    9  C7  UNL     1     -31.673   8.223  -0.332  1.00 20.00     0.046 C 
ENDBRANCH   4   7
BRANCH   4  10
HETATM   10  O9  UNL     1     -31.574   7.099   2.118  1.00 20.00    -0.385 OA
HETATM   11  H24 UNL     1     -30.742   7.593   2.183  1.00 20.00     0.211 HD
ENDBRANCH   4  10
TORSDOF 2
