REMARK  0 active torsions:
REMARK  status: ('A' for Active; 'I' for Inactive)
ROOT
HETATM    1  C1  UNL     1     -34.258   5.127   3.821  1.00 20.00     0.086 C 
HETATM    2  C2  UNL     1     -32.641   7.012   0.882  1.00 20.00     0.013 C 
HETATM    3  C3  UNL     1     -33.152   5.880   1.773  1.00 20.00     0.043 C 
HETATM    4  C4  UNL     1     -31.653   7.923   1.592  1.00 20.00     0.074 C 
HETATM    5  C5  UNL     1     -32.998   7.267   3.929  1.00 20.00     0.081 C 
HETATM    6  C6  UNL     1     -33.879   6.334   3.056  1.00 20.00     0.137 C 
HETATM    7  C7  UNL     1     -33.666   7.763   5.218  1.00 20.00     0.024 C 
HETATM    8  N8  UNL     1     -34.556   4.179   4.421  1.00 20.00    -0.195 NA
HETATM    9  S9  UNL     1     -32.410   8.747   3.016  1.00 20.00    -0.162 SA
HETATM   10 CL10 UNL     1     -35.441   7.119   2.609  1.00 20.00    -0.102 Cl
ENDROOT
TORSDOF 0
