REMARK  2 active torsions:
REMARK  status: ('A' for Active; 'I' for Inactive)
REMARK    1  A    between atoms: C2_2  and  C3_3 
REMARK    2  A    between atoms: C3_3  and  C7_7 
ROOT
HETATM    1  C4  UNL     1     -34.089   4.329   3.437  1.00 20.00     0.084 C 
HETATM    2  C5  UNL     1     -33.638   4.202   1.990  1.00 20.00     0.085 C 
HETATM    3  C6  UNL     1     -33.619   7.056   3.349  1.00 20.00     0.097 C 
HETATM    4  C7  UNL     1     -33.172   6.930   1.897  1.00 20.00     0.131 C 
HETATM    5  S10 UNL     1     -34.952   5.893   3.773  1.00 20.00    -0.167 SA
HETATM    6  S11 UNL     1     -32.308   5.364   1.561  1.00 20.00    -0.155 SA
ENDROOT
BRANCH   4   7
HETATM    7  C3  UNL     1     -32.203   8.024   1.577  1.00 20.00     0.169 C 
HETATM    8  O9  UNL     1     -31.156   8.135   2.218  1.00 20.00    -0.291 OA
BRANCH   7   9
HETATM    9  C2  UNL     1     -32.509   8.989   0.470  1.00 20.00    -0.024 C 
HETATM   10  C1  UNL     1     -32.617  10.305   0.700  1.00 20.00     0.022 C 
HETATM   11  C8  UNL     1     -32.686   8.404  -0.900  1.00 20.00     0.051 C 
ENDBRANCH   7   9
ENDBRANCH   4   7
TORSDOF 2
