REMARK  1 active torsions:
REMARK  status: ('A' for Active; 'I' for Inactive)
REMARK    1  A    between atoms: C5_5  and  O9_9 
ROOT
HETATM    1  C1  UNL     1     -33.797   5.630   3.316  1.00 20.00     0.022 C 
HETATM    2  C2  UNL     1     -34.938   6.229   4.134  1.00 20.00     0.075 C 
HETATM    3  C3  UNL     1     -33.856   8.677   3.475  1.00 20.00     0.112 C 
HETATM    4  C4  UNL     1     -33.268   6.522   2.161  1.00 20.00    -0.015 C 
HETATM    5  C5  UNL     1     -32.769   7.918   2.688  1.00 20.00     0.069 C 
HETATM    6  C6  UNL     1     -32.124   5.750   1.458  1.00 20.00     0.018 C 
HETATM    7  C7  UNL     1     -34.382   6.696   1.096  1.00 20.00     0.018 C 
HETATM    8  C8  UNL     1     -31.475   7.828   3.523  1.00 20.00     0.047 C 
HETATM    9  S10 UNL     1     -34.476   7.789   4.930  1.00 20.00    -0.166 SA
ENDROOT
BRANCH   5  10
HETATM   10  O9  UNL     1     -32.443   8.732   1.547  1.00 20.00    -0.389 OA
HETATM   11  H26 UNL     1     -32.124   9.571   1.905  1.00 20.00     0.210 HD
ENDBRANCH   5  10
TORSDOF 1
