REMARK  5 active torsions:
REMARK  status: ('A' for Active; 'I' for Inactive)
REMARK    1  A    between atoms: C1_1  and  C7_7 
REMARK    2  A    between atoms: C2_2  and  C8_8 
REMARK    3  A    between atoms: C5_5  and  N9_9 
REMARK    4  A    between atoms: C7_7  and  N9_9 
REMARK    5  A    between atoms: C8_8  and  S10_10 
ROOT
HETATM    1  C7  UNL     1     -32.936   7.213   2.722  1.00 20.00     0.299 C 
ENDROOT
BRANCH   1   2
HETATM    2  C1  UNL     1     -33.764   6.036   3.142  1.00 20.00    -0.000 C 
HETATM    3  C2  UNL     1     -33.257   4.934   3.716  1.00 20.00    -0.019 C 
BRANCH   3   4
HETATM    4  C8  UNL     1     -34.086   3.763   4.139  1.00 20.00     0.097 C 
BRANCH   4   5
HETATM    5  S10 UNL     1     -33.035   2.494   4.894  1.00 20.00    -0.178 SA
HETATM    6  H25 UNL     1     -34.022   1.624   5.152  1.00 20.00     0.101 HD
ENDBRANCH   4   5
ENDBRANCH   3   4
ENDBRANCH   1   2
BRANCH   1   7
HETATM    7  N9  UNL     1     -33.025   7.446   1.284  1.00 20.00     0.092 N 
HETATM    8  C6  UNL     1     -32.606   6.255   0.543  1.00 20.00     0.310 C 
BRANCH   7   9
HETATM    9  C5  UNL     1     -32.210   8.598   0.898  1.00 20.00     0.223 A 
HETATM   10  C3  UNL     1     -32.188   9.071  -0.529  1.00 20.00     0.038 A 
HETATM   11  C4  UNL     1     -32.858   9.902   0.525  1.00 20.00     0.038 A 
ENDBRANCH   7   9
ENDBRANCH   1   7
TORSDOF 5
