REMARK  5 active torsions:
REMARK  status: ('A' for Active; 'I' for Inactive)
REMARK    1  A    between atoms: C5_5  and  C7_7 
REMARK    2  A    between atoms: C5_5  and  S9_9 
REMARK    3  A    between atoms: C6_6  and  C7_7 
REMARK    4  A    between atoms: C6_6  and  S10_10 
REMARK    5  A    between atoms: C7_7  and  C8_8 
ROOT
HETATM    1  C7  UNL     1     -33.457   7.597   2.280  1.00 20.00     0.011 C 
ENDROOT
BRANCH   1   2
HETATM    2  C5  UNL     1     -33.618   6.404   1.301  1.00 20.00     0.077 C 
BRANCH   2   3
HETATM    3  S9  UNL     1     -32.197   5.261   1.278  1.00 20.00    -0.182 SA
HETATM    4  H28 UNL     1     -32.709   4.429   0.363  1.00 20.00     0.101 HD
ENDBRANCH   2   3
ENDBRANCH   1   2
BRANCH   1   5
HETATM    5  C6  UNL     1     -32.036   8.228   2.277  1.00 20.00     0.079 C 
BRANCH   5   6
HETATM    6  S10 UNL     1     -31.388   8.813   0.682  1.00 20.00    -0.173 SA
HETATM    7  C4  UNL     1     -32.570  10.149   0.395  1.00 20.00     0.089 C 
ENDBRANCH   5   6
ENDBRANCH   1   5
BRANCH   1   8
HETATM    8  C8  UNL     1     -34.019   7.285   3.732  1.00 20.00    -0.046 C 
HETATM    9  C1  UNL     1     -35.491   6.819   3.676  1.00 20.00     0.015 C 
HETATM   10  C2  UNL     1     -33.209   6.220   4.495  1.00 20.00     0.015 C 
HETATM   11  C3  UNL     1     -33.998   8.579   4.585  1.00 20.00     0.015 C 
ENDBRANCH   1   8
TORSDOF 5
