REMARK  2 active torsions:
REMARK  status: ('A' for Active; 'I' for Inactive)
REMARK    1  A    between atoms: C5_5  and  C10_10 
REMARK    2  A    between atoms: C6_6  and  C11_11 
ROOT
HETATM    1  C1  UNL     1     -33.322   7.701   3.213  1.00 20.00     0.008 A 
HETATM    2  C2  UNL     1     -32.501   6.273   1.445  1.00 20.00     0.008 A 
HETATM    3  C3  UNL     1     -33.941   6.604   3.811  1.00 20.00     0.010 A 
HETATM    4  C4  UNL     1     -33.121   5.176   2.044  1.00 20.00     0.010 A 
HETATM    5  C5  UNL     1     -32.602   7.535   2.029  1.00 20.00    -0.054 A 
HETATM    6  C6  UNL     1     -33.841   5.342   3.227  1.00 20.00    -0.027 A 
ENDROOT
BRANCH   5   7
HETATM    7  C10 UNL     1     -31.940   8.707   1.390  1.00 20.00     0.018 A 
HETATM    8  C7  UNL     1     -32.767   9.920   1.049  1.00 20.00     0.010 A 
HETATM    9  C8  UNL     1     -32.258   9.036  -0.046  1.00 20.00     0.010 A 
ENDBRANCH   5   7
BRANCH   6  10
HETATM   10  C11 UNL     1     -34.503   4.170   3.867  1.00 20.00     0.178 A 
HETATM   11  C9  UNL     1     -33.672   2.991   4.296  1.00 20.00     0.205 A 
HETATM   12  O12 UNL     1     -34.186   3.928   5.245  1.00 20.00    -0.376 OA
ENDBRANCH   6  10
TORSDOF 2
