REMARK  6 active torsions:
REMARK  status: ('A' for Active; 'I' for Inactive)
REMARK    1  A    between atoms: C3_3  and  C4_4 
REMARK    2  A    between atoms: C4_4  and  C7_7 
REMARK    3  A    between atoms: C5_5  and  C7_7 
REMARK    4  A    between atoms: C5_5  and  S8_8 
REMARK    5  A    between atoms: C6_6  and  C7_7 
REMARK    6  A    between atoms: C6_6  and  S9_9 
ROOT
HETATM    1  C7  UNL     1     -32.508   7.143   1.493  1.00 20.00     0.004 C 
ENDROOT
BRANCH   1   2
HETATM    2  C4  UNL     1     -33.216   7.511   2.823  1.00 20.00     0.006 C 
BRANCH   2   3
HETATM    3  C3  UNL     1     -34.350   6.581   3.267  1.00 20.00    -0.004 C 
HETATM    4  C1  UNL     1     -35.034   7.025   4.550  1.00 20.00     0.005 C 
ENDBRANCH   2   3
ENDBRANCH   1   2
BRANCH   1   5
HETATM    5  C5  UNL     1     -32.009   5.684   1.595  1.00 20.00     0.076 C 
BRANCH   5   6
HETATM    6  S8  UNL     1     -31.170   5.091   0.095  1.00 20.00    -0.182 SA
HETATM    7  H25 UNL     1     -30.907   3.863   0.559  1.00 20.00     0.101 HD
ENDBRANCH   5   6
ENDBRANCH   1   5
BRANCH   1   8
HETATM    8  C6  UNL     1     -31.425   8.161   1.070  1.00 20.00     0.078 C 
BRANCH   8   9
HETATM    9  S9  UNL     1     -32.005   9.871   0.844  1.00 20.00    -0.173 SA
HETATM   10  C2  UNL     1     -32.637   9.709  -0.841  1.00 20.00     0.089 C 
ENDBRANCH   8   9
ENDBRANCH   1   8
TORSDOF 6
