REMARK  5 active torsions:
REMARK  status: ('A' for Active; 'I' for Inactive)
REMARK    1  A    between atoms: C5_5  and  C8_8 
REMARK    2  A    between atoms: C5_5  and  N9_9 
REMARK    3  A    between atoms: C6_6  and  C8_8 
REMARK    4  A    between atoms: C6_6  and  S10_10 
REMARK    5  A    between atoms: C7_7  and  C8_8 
ROOT
HETATM    1  C8  UNL     1     -32.952   6.974   1.552  1.00 20.00     0.024 C 
ENDROOT
BRANCH   1   2
HETATM    2  C5  UNL     1     -32.955   7.620   2.955  1.00 20.00     0.239 C 
BRANCH   2   3
HETATM    3  N9  UNL     1     -33.877   6.920   3.881  1.00 20.00    -0.078 N 
HETATM    4  C3  UNL     1     -33.891   7.531   5.261  1.00 20.00     0.269 C 
HETATM    5  C4  UNL     1     -35.276   6.798   3.326  1.00 20.00     0.269 C 
HETATM    6  H29 UNL     1     -33.532   5.952   4.001  1.00 20.00     0.278 HD
ENDBRANCH   2   3
ENDBRANCH   1   2
BRANCH   1   7
HETATM    7  C6  UNL     1     -31.997   7.679   0.555  1.00 20.00     0.077 C 
BRANCH   7   8
HETATM    8  S10 UNL     1     -32.335   9.448   0.286  1.00 20.00    -0.182 SA
HETATM    9  H30 UNL     1     -31.339   9.645  -0.588  1.00 20.00     0.101 HD
ENDBRANCH   7   8
ENDBRANCH   1   7
BRANCH   1  10
HETATM   10  C7  UNL     1     -32.650   5.436   1.587  1.00 20.00    -0.016 C 
HETATM   11  C1  UNL     1     -31.243   5.123   2.117  1.00 20.00     0.010 C 
HETATM   12  C2  UNL     1     -32.794   4.782   0.205  1.00 20.00     0.010 C 
ENDBRANCH   1  10
TORSDOF 5
