REMARK  1 active torsions:
REMARK  status: ('A' for Active; 'I' for Inactive)
REMARK    1  A    between atoms: C4_4  and  C11_11 
ROOT
HETATM    1  C1  UNL     1     -31.761   7.318   1.116  1.00 20.00     0.008 A 
HETATM    2  C2  UNL     1     -31.988   6.057   1.670  1.00 20.00     0.008 A 
HETATM    3  C3  UNL     1     -33.410   8.318   2.601  1.00 20.00     0.016 A 
HETATM    4  C4  UNL     1     -32.466   8.441   1.579  1.00 20.00    -0.053 A 
HETATM    5  C5  UNL     1     -32.917   5.946   2.691  1.00 20.00    -0.050 A 
HETATM    6  C6  UNL     1     -33.626   7.065   3.149  1.00 20.00    -0.033 A 
HETATM    7  C7  UNL     1     -33.349   4.707   3.412  1.00 20.00     0.041 C 
HETATM    8  C8  UNL     1     -34.030   5.312   4.651  1.00 20.00     0.030 C 
HETATM    9  C12 UNL     1     -34.594   6.680   4.225  1.00 20.00     0.116 C 
HETATM   10 CL13 UNL     1     -36.230   6.524   3.551  1.00 20.00    -0.120 Cl
ENDROOT
BRANCH   4  11
HETATM   11  C11 UNL     1     -32.207   9.776   0.969  1.00 20.00     0.018 A 
HETATM   12  C9  UNL     1     -33.361  10.555   0.394  1.00 20.00     0.010 A 
HETATM   13  C10 UNL     1     -32.348   9.942  -0.522  1.00 20.00     0.010 A 
ENDBRANCH   4  11
TORSDOF 1
