REMARK  4 active torsions:
REMARK  status: ('A' for Active; 'I' for Inactive)
REMARK    1  A    between atoms: C1_1  and  C9_9 
REMARK    2  A    between atoms: C2_2  and  C10_10 
REMARK    3  A    between atoms: C9_9  and  N11_11 
REMARK    4  A    between atoms: C10_10  and  S12_12 
ROOT
HETATM    1  C3  UNL     1     -35.500   6.364   3.924  1.00 20.00     0.002 C 
HETATM    2  C4  UNL     1     -34.814   5.049   4.271  1.00 20.00     0.002 C 
HETATM    3  C5  UNL     1     -34.586   7.585   3.884  1.00 20.00     0.030 C 
HETATM    4  C6  UNL     1     -34.115   4.424   3.066  1.00 20.00     0.030 C 
HETATM    5  C7  UNL     1     -33.130   7.365   3.475  1.00 20.00     0.272 C 
HETATM    6  C8  UNL     1     -32.828   5.116   2.614  1.00 20.00     0.272 C 
HETATM    7  N11 UNL     1     -32.979   6.541   2.266  1.00 20.00     0.091 N 
ENDROOT
BRANCH   7   8
HETATM    8  C9  UNL     1     -31.792   6.976   1.519  1.00 20.00     0.299 C 
BRANCH   8   9
HETATM    9  C1  UNL     1     -31.900   8.411   1.100  1.00 20.00    -0.000 C 
HETATM   10  C2  UNL     1     -32.860   8.882   0.289  1.00 20.00    -0.019 C 
BRANCH  10  11
HETATM   11  C10 UNL     1     -32.968  10.316  -0.123  1.00 20.00     0.097 C 
BRANCH  11  12
HETATM   12  S12 UNL     1     -31.479  10.818  -1.028  1.00 20.00    -0.178 SA
HETATM   13  H31 UNL     1     -31.864  12.083  -1.247  1.00 20.00     0.101 HD
ENDBRANCH  11  12
ENDBRANCH  10  11
ENDBRANCH   8   9
ENDBRANCH   7   8
TORSDOF 4
