REMARK  1 active torsions:
REMARK  status: ('A' for Active; 'I' for Inactive)
REMARK    1  A    between atoms: C5_5  and  C12_12 
ROOT
HETATM    1  C1  UNL     1     -31.690   6.785   0.906  1.00 20.00     0.008 A 
HETATM    2  C2  UNL     1     -32.021   5.457   1.196  1.00 20.00     0.009 A 
HETATM    3  C3  UNL     1     -33.289   7.594   2.550  1.00 20.00     0.023 A 
HETATM    4  C4  UNL     1     -33.594   6.272   2.814  1.00 20.00     0.017 A 
HETATM    5  C5  UNL     1     -32.320   7.846   1.579  1.00 20.00    -0.053 A 
HETATM    6  C6  UNL     1     -32.983   5.209   2.161  1.00 20.00    -0.044 A 
HETATM    7  C7  UNL     1     -34.551   5.731   3.766  1.00 20.00     0.160 A 
HETATM    8  C8  UNL     1     -33.484   3.878   2.623  1.00 20.00     0.047 A 
HETATM    9  C9  UNL     1     -34.533   4.223   3.695  1.00 20.00     0.088 A 
HETATM   10  O13 UNL     1     -35.250   6.410   4.497  1.00 20.00    -0.292 OA
ENDROOT
BRANCH   5  11
HETATM   11  C12 UNL     1     -31.950   9.252   1.250  1.00 20.00     0.018 A 
HETATM   12  C10 UNL     1     -33.031  10.215   0.834  1.00 20.00     0.010 A 
HETATM   13  C11 UNL     1     -32.046   9.721  -0.179  1.00 20.00     0.010 A 
ENDBRANCH   5  11
TORSDOF 1
