REMARK  4 active torsions:
REMARK  status: ('A' for Active; 'I' for Inactive)
REMARK    1  A    between atoms: C4_4  and  O8_8 
REMARK    2  A    between atoms: C5_5  and  C6_6 
REMARK    3  A    between atoms: C5_5  and  O8_8 
REMARK    4  A    between atoms: C6_6  and  S9_9 
ROOT
HETATM    1  C1  UNL     1     -33.719   6.413   2.770  1.00 20.00     0.060 C 
HETATM    2  C2  UNL     1     -34.826   6.068   3.739  1.00 20.00     0.170 C 
HETATM    3  C3  UNL     1     -33.704   7.940   4.550  1.00 20.00     0.199 C 
HETATM    4  C4  UNL     1     -33.513   7.881   3.049  1.00 20.00     0.147 C 
HETATM    5  O7  UNL     1     -34.650   6.915   4.885  1.00 20.00    -0.389 OA
ENDROOT
BRANCH   4   6
HETATM    6  O8  UNL     1     -32.229   8.315   2.655  1.00 20.00    -0.383 OA
BRANCH   6   7
HETATM    7  C5  UNL     1     -32.167   8.552   1.256  1.00 20.00     0.178 C 
BRANCH   7   8
HETATM    8  C6  UNL     1     -32.846   9.870   0.919  1.00 20.00     0.097 C 
BRANCH   8   9
HETATM    9  S9  UNL     1     -32.782  10.213  -0.866  1.00 20.00    -0.180 SA
HETATM   10  H21 UNL     1     -33.434  11.381  -0.806  1.00 20.00     0.101 HD
ENDBRANCH   8   9
ENDBRANCH   7   8
ENDBRANCH   6   7
ENDBRANCH   4   6
TORSDOF 4
