REMARK  4 active torsions:
REMARK  status: ('A' for Active; 'I' for Inactive)
REMARK    1  A    between atoms: C5_5  and  C8_8 
REMARK    2  A    between atoms: C6_6  and  C8_8 
REMARK    3  A    between atoms: C7_7  and  C8_8 
REMARK    4  A    between atoms: C7_7  and  S10_10 
ROOT
HETATM    1  C1  UNL     1     -35.053   6.797   3.576  1.00 20.00     0.074 C 
HETATM    2  C7  UNL     1     -34.160   7.822   3.000  1.00 20.00     0.157 C 
HETATM    3  N9  UNL     1     -35.759   5.991   4.023  1.00 20.00    -0.196 NA
ENDROOT
BRANCH   2   4
HETATM    4  C8  UNL     1     -32.853   7.186   2.437  1.00 20.00     0.012 C 
BRANCH   4   5
HETATM    5  C5  UNL     1     -31.857   8.246   1.891  1.00 20.00     0.002 C 
HETATM    6  C2  UNL     1     -32.395   9.034   0.702  1.00 20.00     0.005 C 
ENDBRANCH   4   5
BRANCH   4   7
HETATM    7  C6  UNL     1     -33.113   6.092   1.370  1.00 20.00     0.002 C 
HETATM    8  C3  UNL     1     -31.856   5.402   0.858  1.00 20.00     0.005 C 
ENDBRANCH   4   7
ENDBRANCH   2   4
BRANCH   2   9
HETATM    9  S10 UNL     1     -33.879   9.172   4.205  1.00 20.00    -0.154 SA
HETATM   10  C4  UNL     1     -33.137   8.179   5.518  1.00 20.00     0.091 C 
ENDBRANCH   2   9
TORSDOF 4
