REMARK  4 active torsions:
REMARK  status: ('A' for Active; 'I' for Inactive)
REMARK    1  A    between atoms: C2_2  and  C6_6 
REMARK    2  A    between atoms: C2_2  and  C7_7 
REMARK    3  A    between atoms: C7_7  and  C8_8 
REMARK    4  A    between atoms: C8_8  and  C9_9 
ROOT
HETATM    1  C7  UNL     1     -33.365   7.525   1.862  1.00 20.00     0.039 C 
ENDROOT
BRANCH   1   2
HETATM    2  C2  UNL     1     -32.226   8.332   1.268  1.00 20.00    -0.089 C 
HETATM    3  C1  UNL     1     -30.982   8.234   1.765  1.00 20.00     0.014 C 
BRANCH   2   4
HETATM    4  C6  UNL     1     -32.521   9.245   0.099  1.00 20.00     0.029 C 
HETATM    5  C3  UNL     1     -32.909  10.655   0.522  1.00 20.00     0.010 C 
ENDBRANCH   2   4
ENDBRANCH   1   2
BRANCH   1   6
HETATM    6  C8  UNL     1     -32.939   6.202   2.544  1.00 20.00     0.003 C 
HETATM    7  C4  UNL     1     -32.170   5.295   1.571  1.00 20.00     0.011 C 
BRANCH   6   8
HETATM    8  C9  UNL     1     -34.119   5.431   3.196  1.00 20.00     0.082 C 
HETATM    9  C5  UNL     1     -33.675   4.198   3.977  1.00 20.00     0.027 C 
HETATM   10 CL10 UNL     1     -35.113   6.469   4.266  1.00 20.00    -0.125 Cl
ENDBRANCH   6   8
ENDBRANCH   1   6
TORSDOF 4
