REMARK  2 active torsions:
REMARK  status: ('A' for Active; 'I' for Inactive)
REMARK    1  A    between atoms: C3_3  and  C8_8 
REMARK    2  A    between atoms: C8_8  and  C9_9 
ROOT
HETATM    1  C1  UNL     1     -32.262   6.002   1.685  1.00 20.00     0.302 C 
HETATM    2  C2  UNL     1     -34.193   6.091   3.189  1.00 20.00     0.244 C 
HETATM    3  C3  UNL     1     -32.521   7.507   1.643  1.00 20.00     0.150 C 
HETATM    4  C4  UNL     1     -33.297   7.126   3.897  1.00 20.00     0.150 C 
HETATM    5  C5  UNL     1     -34.903   5.140   4.149  1.00 20.00     0.045 C 
HETATM    6  C6  UNL     1     -34.044   7.980   4.916  1.00 20.00     0.042 C 
HETATM    7  N10 UNL     1     -33.394   5.274   2.260  1.00 20.00     0.092 N 
HETATM    8  O11 UNL     1     -32.710   8.041   2.957  1.00 20.00    -0.377 OA
HETATM    9  H30 UNL     1     -33.998   4.933   1.496  1.00 20.00     0.316 HD
ENDROOT
BRANCH   3  10
HETATM   10  C8  UNL     1     -31.356   8.254   1.008  1.00 20.00     0.033 C 
BRANCH  10  11
HETATM   11  C9  UNL     1     -31.635   9.751   0.933  1.00 20.00    -0.002 C 
HETATM   12  C7  UNL     1     -32.860  10.040   0.080  1.00 20.00     0.005 C 
ENDBRANCH  10  11
ENDBRANCH   3  10
TORSDOF 2
