REMARK  3 active torsions:
REMARK  status: ('A' for Active; 'I' for Inactive)
REMARK    1  A    between atoms: C5_5  and  C6_6 
REMARK    2  A    between atoms: C6_6  and  C7_7 
REMARK    3  A    between atoms: C7_7  and  C8_8 
ROOT
HETATM    1  C1  UNL     1     -32.742   9.776  -0.820  1.00 20.00     0.012 C 
HETATM    2  C2  UNL     1     -31.998   9.361   0.026  1.00 20.00    -0.117 C 
HETATM    3  C5  UNL     1     -31.084   8.853   1.059  1.00 20.00     0.093 C 
ENDROOT
BRANCH   3   4
HETATM    4  C6  UNL     1     -31.859   8.373   2.290  1.00 20.00     0.018 C 
BRANCH   4   5
HETATM    5  C7  UNL     1     -32.796   7.175   2.001  1.00 20.00     0.000 C 
HETATM    6  C3  UNL     1     -32.024   5.983   1.421  1.00 20.00     0.011 C 
BRANCH   5   7
HETATM    7  C8  UNL     1     -33.622   6.822   3.267  1.00 20.00     0.082 C 
HETATM    8  C4  UNL     1     -34.379   8.013   3.848  1.00 20.00     0.027 C 
HETATM    9 CL9  UNL     1     -34.779   5.487   2.971  1.00 20.00    -0.125 Cl
ENDBRANCH   5   7
ENDBRANCH   4   5
ENDBRANCH   3   4
TORSDOF 3
