REMARK  4 active torsions:
REMARK  status: ('A' for Active; 'I' for Inactive)
REMARK    1  A    between atoms: C5_5  and  C6_6 
REMARK    2  A    between atoms: C6_6  and  C9_9 
REMARK    3  A    between atoms: C7_7  and  C9_9 
REMARK    4  A    between atoms: C8_8  and  C9_9 
ROOT
HETATM    1  C4  UNL     1     -31.521   7.028   3.151  1.00 20.00     0.016 C 
HETATM    2  C9  UNL     1     -33.021   7.065   2.739  1.00 20.00    -0.029 C 
ENDROOT
BRANCH   2   3
HETATM    3  C6  UNL     1     -33.214   8.435   2.003  1.00 20.00     0.010 C 
BRANCH   3   4
HETATM    4  C5  UNL     1     -32.330   8.724   0.786  1.00 20.00    -0.004 C 
HETATM    5  C1  UNL     1     -32.586  10.125   0.243  1.00 20.00     0.005 C 
ENDBRANCH   3   4
ENDBRANCH   2   3
BRANCH   2   6
HETATM    6  C7  UNL     1     -33.208   5.873   1.750  1.00 20.00     0.124 C 
HETATM    7 CL10 UNL     1     -31.893   5.623   0.576  1.00 20.00    -0.130 Cl
ENDBRANCH   2   6
BRANCH   2   8
HETATM    8  C8  UNL     1     -33.943   6.932   4.012  1.00 20.00    -0.014 C 
HETATM    9  C2  UNL     1     -35.447   6.903   3.691  1.00 20.00     0.010 C 
HETATM   10  C3  UNL     1     -33.704   8.016   5.076  1.00 20.00     0.010 C 
ENDBRANCH   2   8
TORSDOF 4
