REMARK  4 active torsions:
REMARK  status: ('A' for Active; 'I' for Inactive)
REMARK    1  A    between atoms: C1_1  and  C9_9 
REMARK    2  A    between atoms: C1_1  and  C10_10 
REMARK    3  A    between atoms: C7_7  and  C9_9 
REMARK    4  A    between atoms: C8_8  and  C9_9 
ROOT
HETATM    1  C1  UNL     1     -32.793   7.593   2.541  1.00 20.00     0.138 C 
HETATM    2  O11 UNL     1     -31.644   7.977   2.777  1.00 20.00    -0.297 OA
ENDROOT
BRANCH   1   3
HETATM    3  C9  UNL     1     -33.161   7.098   1.135  1.00 20.00     0.055 C 
BRANCH   3   4
HETATM    4  C7  UNL     1     -32.294   7.865   0.119  1.00 20.00     0.007 C 
HETATM    5  C2  UNL     1     -32.476   9.374   0.191  1.00 20.00     0.006 C 
ENDBRANCH   3   4
BRANCH   3   6
HETATM    6  C8  UNL     1     -32.953   5.575   1.023  1.00 20.00     0.007 C 
HETATM    7  C3  UNL     1     -31.512   5.148   1.273  1.00 20.00     0.006 C 
ENDBRANCH   3   6
ENDBRANCH   1   3
BRANCH   1   8
HETATM    8  C10 UNL     1     -33.886   7.611   3.635  1.00 20.00     0.010 C 
HETATM    9  C4  UNL     1     -34.436   6.199   3.875  1.00 20.00     0.022 C 
HETATM   10  C5  UNL     1     -33.313   8.185   4.937  1.00 20.00     0.022 C 
HETATM   11  C6  UNL     1     -35.050   8.510   3.178  1.00 20.00     0.022 C 
ENDBRANCH   1   8
TORSDOF 4
