REMARK  2 active torsions:
REMARK  status: ('A' for Active; 'I' for Inactive)
REMARK    1  A    between atoms: C4_4  and  C7_7 
REMARK    2  A    between atoms: C7_7  and  C8_8 
ROOT
HETATM    1  C1  UNL     1     -35.078   6.376   4.029  1.00 20.00     0.033 C 
HETATM    2  C2  UNL     1     -35.160   4.891   4.315  1.00 20.00     0.168 C 
HETATM    3  C3  UNL     1     -32.961   5.406   3.745  1.00 20.00     0.172 C 
HETATM    4  C4  UNL     1     -33.874   6.445   3.116  1.00 20.00     0.016 C 
HETATM    5  O9  UNL     1     -33.817   4.387   4.285  1.00 20.00    -0.391 OA
ENDROOT
BRANCH   4   6
HETATM    6  C7  UNL     1     -33.250   7.824   3.014  1.00 20.00     0.002 C 
HETATM    7  C5  UNL     1     -32.890   8.326   4.393  1.00 20.00     0.011 C 
BRANCH   6   8
HETATM    8  C8  UNL     1     -32.068   7.814   2.024  1.00 20.00     0.058 C 
HETATM    9  C6  UNL     1     -32.294   7.063   0.720  1.00 20.00     0.022 C 
HETATM   10 BR10 UNL     1     -31.534   9.658   1.593  1.00 20.00    -0.091 Br
ENDBRANCH   6   8
ENDBRANCH   4   6
TORSDOF 2
