REMARK  2 active torsions:
REMARK  status: ('A' for Active; 'I' for Inactive)
REMARK    1  A    between atoms: C4_4  and  C7_7 
REMARK    2  A    between atoms: C4_4  and  C8_8 
ROOT
HETATM    1  C1  UNL     1     -32.153   5.783   2.545  1.00 20.00     0.039 C 
HETATM    2  C2  UNL     1     -31.931   5.089   1.214  1.00 20.00     0.168 C 
HETATM    3  C3  UNL     1     -33.815   6.452   1.030  1.00 20.00     0.178 C 
HETATM    4  C4  UNL     1     -32.959   7.015   2.162  1.00 20.00    -0.001 C 
HETATM    5  O9  UNL     1     -33.013   5.472   0.353  1.00 20.00    -0.390 OA
ENDROOT
BRANCH   4   6
HETATM    6  C7  UNL     1     -33.807   7.542   3.318  1.00 20.00     0.126 C 
HETATM    7 CL10 UNL     1     -34.958   6.302   3.845  1.00 20.00    -0.130 Cl
ENDBRANCH   4   6
BRANCH   4   8
HETATM    8  C8  UNL     1     -32.042   8.136   1.646  1.00 20.00    -0.011 C 
HETATM    9  C5  UNL     1     -32.870   9.347   1.235  1.00 20.00     0.010 C 
HETATM   10  C6  UNL     1     -31.020   8.511   2.711  1.00 20.00     0.010 C 
ENDBRANCH   4   8
TORSDOF 2
