REMARK  3 active torsions:
REMARK  status: ('A' for Active; 'I' for Inactive)
REMARK    1  A    between atoms: C4_4  and  C10_10 
REMARK    2  A    between atoms: C8_8  and  C10_10 
REMARK    3  A    between atoms: C9_9  and  C10_10 
ROOT
HETATM    1  C1  UNL     1     -31.867   6.819   1.473  1.00 20.00     0.006 C 
HETATM    2  C2  UNL     1     -31.440   7.902   0.494  1.00 20.00     0.020 C 
HETATM    3  C3  UNL     1     -33.209   8.840   1.827  1.00 20.00     0.025 C 
HETATM    4  C4  UNL     1     -32.689   7.571   2.528  1.00 20.00    -0.009 C 
HETATM    5  C5  UNL     1     -32.700   8.748   0.390  1.00 20.00     0.082 C 
HETATM    6 CL11 UNL     1     -32.387  10.336  -0.324  1.00 20.00    -0.125 Cl
ENDROOT
BRANCH   4   7
HETATM    7  C10 UNL     1     -33.803   6.716   3.114  1.00 20.00    -0.011 C 
BRANCH   7   8
HETATM    8  C8  UNL     1     -34.634   7.500   4.151  1.00 20.00     0.000 C 
HETATM    9  C6  UNL     1     -33.827   7.980   5.350  1.00 20.00     0.005 C 
ENDBRANCH   7   8
BRANCH   7  10
HETATM   10  C9  UNL     1     -33.248   5.438   3.776  1.00 20.00     0.000 C 
HETATM   11  C7  UNL     1     -34.322   4.528   4.356  1.00 20.00     0.005 C 
ENDBRANCH   7  10
ENDBRANCH   4   7
TORSDOF 3
