REMARK  4 active torsions:
REMARK  status: ('A' for Active; 'I' for Inactive)
REMARK    1  A    between atoms: C2_2  and  C6_6 
REMARK    2  A    between atoms: C2_2  and  C7_7 
REMARK    3  A    between atoms: C7_7  and  C8_8 
REMARK    4  A    between atoms: C8_8  and  C9_9 
ROOT
HETATM    1  C7  UNL     1     -31.948   7.778   2.046  1.00 20.00     0.039 C 
ENDROOT
BRANCH   1   2
HETATM    2  C2  UNL     1     -31.841   8.529   0.733  1.00 20.00    -0.089 C 
HETATM    3  C1  UNL     1     -31.124   8.030  -0.288  1.00 20.00     0.014 C 
BRANCH   2   4
HETATM    4  C6  UNL     1     -32.563   9.851   0.595  1.00 20.00     0.029 C 
HETATM    5  C3  UNL     1     -32.378  10.495  -0.772  1.00 20.00     0.010 C 
ENDBRANCH   2   4
ENDBRANCH   1   2
BRANCH   1   6
HETATM    6  C8  UNL     1     -33.091   6.734   2.109  1.00 20.00     0.003 C 
HETATM    7  C4  UNL     1     -32.723   5.456   1.337  1.00 20.00     0.011 C 
BRANCH   6   8
HETATM    8  C9  UNL     1     -33.535   6.396   3.557  1.00 20.00     0.082 C 
HETATM    9  C5  UNL     1     -33.898   7.629   4.379  1.00 20.00     0.027 C 
HETATM   10 CL10 UNL     1     -34.904   5.242   3.608  1.00 20.00    -0.125 Cl
ENDBRANCH   6   8
ENDBRANCH   1   6
TORSDOF 4
