REMARK  5 active torsions:
REMARK  status: ('A' for Active; 'I' for Inactive)
REMARK    1  A    between atoms: C1_1  and  C7_7 
REMARK    2  A    between atoms: C1_1  and  C11_11 
REMARK    3  A    between atoms: C7_7  and  C10_10 
REMARK    4  A    between atoms: C8_8  and  C10_10 
REMARK    5  A    between atoms: C9_9  and  C10_10 
ROOT
HETATM    1  C1  UNL     1     -32.139   8.522   1.433  1.00 20.00     0.134 C 
HETATM    2  O12 UNL     1     -31.084   8.137   1.943  1.00 20.00    -0.297 OA
ENDROOT
BRANCH   1   3
HETATM    3  C7  UNL     1     -33.484   8.225   2.095  1.00 20.00     0.083 C 
BRANCH   3   4
HETATM    4  C10 UNL     1     -33.485   6.933   2.940  1.00 20.00    -0.008 C 
BRANCH   4   5
HETATM    5  C8  UNL     1     -33.044   5.724   2.086  1.00 20.00     0.000 C 
HETATM    6  C2  UNL     1     -33.955   5.390   0.913  1.00 20.00     0.005 C 
ENDBRANCH   4   5
BRANCH   4   7
HETATM    7  C9  UNL     1     -34.856   6.742   3.625  1.00 20.00     0.000 C 
HETATM    8  C3  UNL     1     -34.926   5.514   4.522  1.00 20.00     0.005 C 
ENDBRANCH   4   7
ENDBRANCH   3   4
ENDBRANCH   1   3
BRANCH   1   9
HETATM    9  C11 UNL     1     -32.146   9.306   0.103  1.00 20.00     0.009 C 
HETATM   10  C4  UNL     1     -32.797  10.675   0.336  1.00 20.00     0.022 C 
HETATM   11  C5  UNL     1     -30.699   9.518  -0.375  1.00 20.00     0.022 C 
HETATM   12  C6  UNL     1     -32.906   8.530  -0.980  1.00 20.00     0.022 C 
ENDBRANCH   1   9
TORSDOF 5
