REMARK  3 active torsions:
REMARK  status: ('A' for Active; 'I' for Inactive)
REMARK    1  A    between atoms: C4_4  and  C7_7 
REMARK    2  A    between atoms: C4_4  and  C9_9 
REMARK    3  A    between atoms: C8_8  and  C9_9 
ROOT
HETATM    1  C1  UNL     1     -32.049   4.997   0.753  1.00 20.00     0.002 C 
HETATM    2  C2  UNL     1     -33.325   5.845   0.921  1.00 20.00     0.011 C 
HETATM    3  C3  UNL     1     -31.560   5.556   2.103  1.00 20.00     0.011 C 
HETATM    4  C4  UNL     1     -32.533   6.756   1.905  1.00 20.00    -0.025 C 
ENDROOT
BRANCH   4   5
HETATM    5  C7  UNL     1     -33.311   7.138   3.160  1.00 20.00     0.124 C 
HETATM    6 CL10 UNL     1     -34.252   5.753   3.742  1.00 20.00    -0.130 Cl
ENDBRANCH   4   5
BRANCH   4   7
HETATM    7  C9  UNL     1     -31.894   7.980   1.249  1.00 20.00    -0.010 C 
HETATM    8  C6  UNL     1     -31.092   8.766   2.289  1.00 20.00     0.011 C 
BRANCH   7   9
HETATM    9  C8  UNL     1     -32.932   8.903   0.589  1.00 20.00     0.000 C 
HETATM   10  C5  UNL     1     -32.322  10.129  -0.076  1.00 20.00     0.005 C 
ENDBRANCH   7   9
ENDBRANCH   4   7
TORSDOF 3
