REMARK  3 active torsions:
REMARK  status: ('A' for Active; 'I' for Inactive)
REMARK    1  A    between atoms: C6_6  and  C10_10 
REMARK    2  A    between atoms: C6_6  and  C11_11 
REMARK    3  A    between atoms: C9_9  and  N12_12 
ROOT
HETATM    1  C1  UNL     1     -35.392   6.057   4.028  1.00 20.00     0.013 C 
HETATM    2  C2  UNL     1     -34.461   6.813   4.066  1.00 20.00    -0.087 C 
HETATM    3  C9  UNL     1     -33.325   7.736   4.117  1.00 20.00     0.364 C 
ENDROOT
BRANCH   3   4
HETATM    4  N12 UNL     1     -32.708   7.865   2.805  1.00 20.00     0.100 N 
HETATM    5  C4  UNL     1     -31.338   8.375   2.876  1.00 20.00     0.274 C 
HETATM    6  C3  UNL     1     -31.064   8.948   1.484  1.00 20.00     0.041 C 
HETATM    7  C6  UNL     1     -32.434   8.989   0.778  1.00 20.00    -0.013 C 
HETATM    8  C5  UNL     1     -33.423   8.803   1.937  1.00 20.00     0.283 C 
BRANCH   7   9
HETATM    9  C10 UNL     1     -32.545   7.832  -0.232  1.00 20.00     0.007 C 
HETATM   10  C7  UNL     1     -32.408   6.512   0.442  1.00 20.00     0.006 C 
ENDBRANCH   7   9
BRANCH   7  11
HETATM   11  C11 UNL     1     -32.665  10.315   0.051  1.00 20.00     0.007 C 
HETATM   12  C8  UNL     1     -31.627  10.557  -0.994  1.00 20.00     0.006 C 
ENDBRANCH   7  11
ENDBRANCH   3   4
TORSDOF 3
