REMARK  1 active torsions:
REMARK  status: ('A' for Active; 'I' for Inactive)
REMARK    1  A    between atoms: C4_4  and  C6_6 
ROOT
HETATM    1  C1  UNL     1     -35.515   5.783   4.411  1.00 20.00     0.029 C 
HETATM    2  C2  UNL     1     -34.143   5.481   3.859  1.00 20.00     0.041 C 
HETATM    3  C3  UNL     1     -36.030   6.804   3.421  1.00 20.00     0.169 C 
HETATM    4  C4  UNL     1     -33.692   6.839   3.322  1.00 20.00     0.070 C 
HETATM    5  C5  UNL     1     -32.972   7.667   4.390  1.00 20.00     0.047 C 
HETATM    6  O7  UNL     1     -34.894   7.546   2.957  1.00 20.00    -0.379 OA
ENDROOT
BRANCH   4   7
HETATM    7  C6  UNL     1     -32.812   6.699   2.083  1.00 20.00     0.152 C 
HETATM    8 CL8  UNL     1     -32.326   8.299   1.496  1.00 20.00    -0.127 Cl
ENDBRANCH   4   7
TORSDOF 1
