REMARK  2 active torsions:
REMARK  status: ('A' for Active; 'I' for Inactive)
REMARK    1  A    between atoms: C5_5  and  C7_7 
REMARK    2  A    between atoms: C7_7  and  N8_8 
ROOT
HETATM    1  C1  UNL     1     -34.909   6.400   3.721  1.00 20.00     0.332 C 
HETATM    2  N8  UNL     1     -34.609   7.391   3.161  1.00 20.00    -0.245 NA
HETATM    3  O9  UNL     1     -35.210   5.410   4.279  1.00 20.00    -0.260 OA
ENDROOT
BRANCH   2   4
HETATM    4  C7  UNL     1     -33.205   7.761   3.289  1.00 20.00     0.190 C 
BRANCH   4   5
HETATM    5  C5  UNL     1     -32.590   7.811   1.894  1.00 20.00     0.075 C 
HETATM    6  C3  UNL     1     -33.284   8.838   0.999  1.00 20.00     0.041 C 
HETATM    7  C2  UNL     1     -32.153   9.339   0.133  1.00 20.00     0.029 C 
HETATM    8  C4  UNL     1     -30.992   9.327   1.101  1.00 20.00     0.169 C 
HETATM    9  O10 UNL     1     -31.218   8.241   2.010  1.00 20.00    -0.379 OA
HETATM   10  C6  UNL     1     -32.588   6.414   1.266  1.00 20.00     0.048 C 
ENDBRANCH   4   5
ENDBRANCH   2   4
TORSDOF 2
