REMARK  3 active torsions:
REMARK  status: ('A' for Active; 'I' for Inactive)
REMARK    1  A    between atoms: C1_1  and  C5_5 
REMARK    2  A    between atoms: C1_1  and  C8_8 
REMARK    3  A    between atoms: C8_8  and  C9_9 
ROOT
HETATM    1  C2  UNL     1     -33.891   4.271   3.918  1.00 20.00     0.029 C 
HETATM    2  C3  UNL     1     -32.894   5.169   3.227  1.00 20.00     0.048 C 
HETATM    3  C4  UNL     1     -34.850   5.272   4.519  1.00 20.00     0.169 C 
HETATM    4  C5  UNL     1     -33.757   6.333   2.754  1.00 20.00     0.117 C 
HETATM    5  C6  UNL     1     -34.199   6.204   1.302  1.00 20.00     0.054 C 
HETATM    6  O11 UNL     1     -34.926   6.358   3.587  1.00 20.00    -0.373 OA
ENDROOT
BRANCH   4   7
HETATM    7  C1  UNL     1     -33.061   7.643   2.976  1.00 20.00     0.160 C 
HETATM    8  O10 UNL     1     -33.200   8.264   4.029  1.00 20.00    -0.295 OA
BRANCH   7   9
HETATM    9  C8  UNL     1     -32.190   8.139   1.836  1.00 20.00     0.081 C 
BRANCH   9  10
HETATM   10  C9  UNL     1     -32.951   9.039   0.867  1.00 20.00     0.003 C 
HETATM   11  C7  UNL     1     -32.050   9.549  -0.245  1.00 20.00     0.005 C 
ENDBRANCH   9  10
ENDBRANCH   7   9
ENDBRANCH   4   7
TORSDOF 3
