REMARK  2 active torsions:
REMARK  status: ('A' for Active; 'I' for Inactive)
REMARK    1  A    between atoms: C1_1  and  C6_6 
REMARK    2  A    between atoms: C1_1  and  C9_9 
ROOT
HETATM    1  C2  UNL     1     -33.283   6.315   4.814  1.00 20.00     0.005 C 
HETATM    2  C3  UNL     1     -33.572   7.812   4.636  1.00 20.00     0.006 C 
HETATM    3  C4  UNL     1     -33.394   5.965   2.338  1.00 20.00     0.017 C 
HETATM    4  C5  UNL     1     -35.318   6.585   3.607  1.00 20.00     0.010 C 
HETATM    5  C6  UNL     1     -33.695   7.457   2.116  1.00 20.00     0.061 C 
HETATM    6  C7  UNL     1     -34.094   5.670   3.679  1.00 20.00    -0.013 C 
HETATM    7  C8  UNL     1     -34.476   7.846   3.389  1.00 20.00    -0.003 C 
ENDROOT
BRANCH   5   8
HETATM    8  C1  UNL     1     -32.468   8.281   1.887  1.00 20.00     0.145 C 
HETATM    9  O10 UNL     1     -31.355   7.758   1.873  1.00 20.00    -0.296 OA
BRANCH   8  10
HETATM   10  C9  UNL     1     -32.700   9.761   1.684  1.00 20.00     0.193 C 
HETATM   11 CL11 UNL     1     -32.919  10.131  -0.032  1.00 20.00    -0.123 Cl
ENDBRANCH   8  10
ENDBRANCH   5   8
TORSDOF 2
