REMARK  2 active torsions:
REMARK  status: ('A' for Active; 'I' for Inactive)
REMARK    1  A    between atoms: C1_1  and  C4_4 
REMARK    2  A    between atoms: C1_1  and  C6_6 
ROOT
HETATM    1  C2  UNL     1     -31.415   7.458   1.838  1.00 20.00     0.018 A 
HETATM    2  C3  UNL     1     -32.508   8.318   1.280  1.00 20.00     0.018 A 
HETATM    3  C4  UNL     1     -32.862   7.091   2.095  1.00 20.00     0.018 A 
HETATM    4  C5  UNL     1     -33.411   5.904   1.344  1.00 20.00     0.023 C 
ENDROOT
BRANCH   3   5
HETATM    5  C1  UNL     1     -33.381   7.322   3.465  1.00 20.00     0.148 C 
HETATM    6  O7  UNL     1     -32.654   7.791   4.339  1.00 20.00    -0.296 OA
BRANCH   5   7
HETATM    7  C6  UNL     1     -34.827   6.943   3.691  1.00 20.00     0.193 C 
HETATM    8 CL8  UNL     1     -34.959   5.255   4.204  1.00 20.00    -0.123 Cl
ENDBRANCH   5   7
ENDBRANCH   3   5
TORSDOF 2
