REMARK  4 active torsions:
REMARK  status: ('A' for Active; 'I' for Inactive)
REMARK    1  A    between atoms: C3_3  and  C10_10 
REMARK    2  A    between atoms: C8_8  and  C9_9 
REMARK    3  A    between atoms: C9_9  and  C10_10 
REMARK    4  A    between atoms: C10_10  and  O11_11 
ROOT
HETATM    1  C7  UNL     1     -31.775   5.793   1.974  1.00 20.00     0.047 C 
HETATM    2  C10 UNL     1     -32.751   6.951   1.922  1.00 20.00     0.065 C 
ENDROOT
BRANCH   2   3
HETATM    3  C3  UNL     1     -33.411   7.136   3.294  1.00 20.00    -0.013 A 
HETATM    4  C1  UNL     1     -33.840   8.528   3.692  1.00 20.00     0.013 A 
HETATM    5  C2  UNL     1     -32.646   7.898   4.351  1.00 20.00     0.013 A 
HETATM    6  C4  UNL     1     -34.266   5.980   3.737  1.00 20.00     0.018 C 
ENDBRANCH   2   3
BRANCH   2   7
HETATM    7  C9  UNL     1     -32.076   8.255   1.377  1.00 20.00     0.016 C 
HETATM    8  C6  UNL     1     -30.804   7.947   0.567  1.00 20.00     0.013 C 
BRANCH   7   9
HETATM    9  C8  UNL     1     -33.041   9.147   0.563  1.00 20.00     0.002 C 
HETATM   10  C5  UNL     1     -32.409  10.442   0.067  1.00 20.00     0.005 C 
ENDBRANCH   7   9
ENDBRANCH   2   7
BRANCH   2  11
HETATM   11  O11 UNL     1     -33.802   6.573   1.020  1.00 20.00    -0.389 OA
HETATM   12  H31 UNL     1     -33.382   6.457   0.157  1.00 20.00     0.210 HD
ENDBRANCH   2  11
TORSDOF 4
