REMARK  1 active torsions:
REMARK  status: ('A' for Active; 'I' for Inactive)
REMARK    1  A    between atoms: C3_3  and  C8_8 
ROOT
HETATM    1  C1  UNL     1     -31.488   7.179   1.952  1.00 20.00     0.017 A 
HETATM    2  C2  UNL     1     -31.210   8.432   1.334  1.00 20.00     0.032 A 
HETATM    3  C3  UNL     1     -32.841   6.940   2.051  1.00 20.00    -0.012 A 
HETATM    4  C4  UNL     1     -32.361   9.103   0.984  1.00 20.00     0.075 A 
HETATM    5  S10 UNL     1     -33.770   8.223   1.400  1.00 20.00    -0.082 SA
HETATM    6 CL11 UNL     1     -32.495  10.633   0.223  1.00 20.00    -0.076 Cl
ENDROOT
BRANCH   3   7
HETATM    7  C8  UNL     1     -33.545   5.735   2.638  1.00 20.00     0.027 C 
HETATM    8  C5  UNL     1     -34.523   6.069   3.786  1.00 20.00     0.011 C 
HETATM    9  C6  UNL     1     -34.501   4.874   4.746  1.00 20.00     0.021 C 
HETATM   10  C9  UNL     1     -33.666   3.815   4.042  1.00 20.00     0.083 C 
HETATM   11  C7  UNL     1     -32.663   4.631   3.241  1.00 20.00     0.030 C 
HETATM   12 CL12 UNL     1     -32.881   2.707   5.176  1.00 20.00    -0.125 Cl
ENDBRANCH   3   7
TORSDOF 1
