REMARK  3 active torsions:
REMARK  status: ('A' for Active; 'I' for Inactive)
REMARK    1  A    between atoms: C1_1  and  C3_3 
REMARK    2  A    between atoms: C2_2  and  C8_8 
REMARK    3  A    between atoms: C8_8  and  C10_10 
ROOT
HETATM    1  C4  UNL     1     -31.085   8.534  -0.698  1.00 20.00     0.002 C 
HETATM    2  C5  UNL     1     -32.124   9.639  -0.509  1.00 20.00     0.002 C 
HETATM    3  C6  UNL     1     -31.387   7.479   0.367  1.00 20.00     0.022 C 
HETATM    4  C7  UNL     1     -33.005   9.201   0.661  1.00 20.00     0.022 C 
HETATM    5  C8  UNL     1     -32.136   8.233   1.472  1.00 20.00     0.024 C 
ENDROOT
BRANCH   5   6
HETATM    6  C2  UNL     1     -32.980   7.294   2.334  1.00 20.00    -0.085 C 
HETATM    7  C1  UNL     1     -33.643   6.556   3.010  1.00 20.00     0.005 C 
BRANCH   7   8
HETATM    8  C3  UNL     1     -34.493   5.609   3.879  1.00 20.00     0.258 C 
HETATM    9  O11 UNL     1     -34.080   4.416   3.964  1.00 20.00    -0.637 OA
HETATM   10  O12 UNL     1     -35.517   6.122   4.417  1.00 20.00    -0.637 OA
ENDBRANCH   7   8
ENDBRANCH   5   6
BRANCH   5  11
HETATM   11  C10 UNL     1     -31.193   8.972   2.338  1.00 20.00     0.018 C 
HETATM   12  C9  UNL     1     -31.909   9.787   3.365  1.00 20.00     0.007 C 
ENDBRANCH   5  11
TORSDOF 3
