REMARK  3 active torsions:
REMARK  status: ('A' for Active; 'I' for Inactive)
REMARK    1  A    between atoms: C3_3  and  C6_6 
REMARK    2  A    between atoms: C6_6  and  C7_7 
REMARK    3  A    between atoms: C6_6  and  O8_8 
ROOT
HETATM    1  C5  UNL     1     -32.319   5.203   3.350  1.00 20.00     0.056 C 
HETATM    2  C6  UNL     1     -33.303   6.006   2.521  1.00 20.00     0.158 C 
ENDROOT
BRANCH   2   3
HETATM    3  C3  UNL     1     -32.597   7.004   1.645  1.00 20.00    -0.004 A 
HETATM    4  C1  UNL     1     -31.743   8.056   2.315  1.00 20.00     0.013 A 
HETATM    5  C2  UNL     1     -33.056   8.442   1.697  1.00 20.00     0.013 A 
HETATM    6  C4  UNL     1     -32.134   6.459   0.322  1.00 20.00     0.018 C 
ENDBRANCH   2   3
BRANCH   2   7
HETATM    7  C7  UNL     1     -34.332   6.681   3.437  1.00 20.00     0.418 C 
HETATM    8  F9  UNL     1     -35.272   7.324   2.709  1.00 20.00    -0.168 F 
HETATM    9  F10 UNL     1     -33.767   7.590   4.263  1.00 20.00    -0.168 F 
HETATM   10  F11 UNL     1     -34.967   5.769   4.206  1.00 20.00    -0.168 F 
ENDBRANCH   2   7
BRANCH   2  11
HETATM   11  O8  UNL     1     -34.018   5.074   1.693  1.00 20.00    -0.380 OA
HETATM   12  H22 UNL     1     -33.351   4.647   1.139  1.00 20.00     0.211 HD
ENDBRANCH   2  11
TORSDOF 3
