REMARK  3 active torsions:
REMARK  status: ('A' for Active; 'I' for Inactive)
REMARK    1  A    between atoms: C1_1  and  C10_10 
REMARK    2  A    between atoms: C5_5  and  C10_10 
REMARK    3  A    between atoms: C10_10  and  O11_11 
ROOT
HETATM    1  C9  UNL     1     -33.013   7.975   3.943  1.00 20.00     0.051 C 
HETATM    2  C10 UNL     1     -33.334   6.965   2.864  1.00 20.00     0.079 C 
ENDROOT
BRANCH   2   3
HETATM    3  C1  UNL     1     -33.146   5.530   3.326  1.00 20.00     0.013 C 
HETATM    4  C2  UNL     1     -34.017   4.708   3.946  1.00 20.00    -0.088 C 
HETATM    5  C6  UNL     1     -33.607   3.306   4.314  1.00 20.00     0.042 C 
HETATM    6  C7  UNL     1     -35.419   5.065   4.353  1.00 20.00     0.042 C 
ENDBRANCH   2   3
BRANCH   2   7
HETATM    7  C5  UNL     1     -32.451   7.219   1.632  1.00 20.00    -0.010 A 
HETATM    8  C3  UNL     1     -31.045   7.722   1.859  1.00 20.00     0.013 A 
HETATM    9  C4  UNL     1     -32.088   8.648   1.302  1.00 20.00     0.013 A 
HETATM   10  C8  UNL     1     -32.683   6.268   0.489  1.00 20.00     0.018 C 
ENDBRANCH   2   7
BRANCH   2  11
HETATM   11  O11 UNL     1     -34.687   7.160   2.436  1.00 20.00    -0.385 OA
HETATM   12  H29 UNL     1     -34.750   8.084   2.155  1.00 20.00     0.211 HD
ENDBRANCH   2  11
TORSDOF 3
