REMARK  1 active torsions:
REMARK  status: ('A' for Active; 'I' for Inactive)
REMARK    1  A    between atoms: C3_3  and  C8_8 
ROOT
HETATM    1  C1  UNL     1     -34.690   6.289   4.017  1.00 20.00     0.089 C 
HETATM    2  C2  UNL     1     -33.875   7.339   3.512  1.00 20.00     0.113 C 
HETATM    3  C3  UNL     1     -33.191   7.259   2.361  1.00 20.00     0.030 C 
HETATM    4  N10 UNL     1     -35.357   5.437   4.435  1.00 20.00    -0.192 NA
HETATM    5 CL11 UNL     1     -33.298   5.799   1.421  1.00 20.00    -0.087 Cl
ENDROOT
BRANCH   3   6
HETATM    6  C8  UNL     1     -32.294   8.328   1.742  1.00 20.00    -0.005 C 
HETATM    7  C6  UNL     1     -32.282   8.242   0.207  1.00 20.00     0.015 C 
HETATM    8  C4  UNL     1     -32.127   9.685  -0.251  1.00 20.00     0.001 C 
HETATM    9  C5  UNL     1     -33.002  10.447   0.728  1.00 20.00     0.001 C 
HETATM   10  C7  UNL     1     -32.770   9.757   2.072  1.00 20.00     0.015 C 
HETATM   11  C9  UNL     1     -30.896   8.141   2.273  1.00 20.00     0.021 C 
ENDBRANCH   3   6
TORSDOF 1
