REMARK  1 active torsions:
REMARK  status: ('A' for Active; 'I' for Inactive)
REMARK    1  A    between atoms: C4_4  and  C5_5 
ROOT
HETATM    1  C1  UNL     1     -35.352   6.286   3.663  1.00 20.00     0.013 A 
HETATM    2  C2  UNL     1     -34.252   5.405   4.185  1.00 20.00     0.013 A 
HETATM    3  C4  UNL     1     -33.914   6.735   3.552  1.00 20.00    -0.011 A 
HETATM    4  C6  UNL     1     -33.477   7.833   4.489  1.00 20.00     0.018 C 
ENDROOT
BRANCH   3   5
HETATM    5  C5  UNL     1     -33.223   6.785   2.183  1.00 20.00     0.086 A 
HETATM    6  C3  UNL     1     -33.384   7.964   1.263  1.00 20.00     0.207 A 
HETATM    7  O8  UNL     1     -32.208   7.785   2.068  1.00 20.00    -0.375 OA
HETATM    8  C7  UNL     1     -32.831   5.467   1.597  1.00 20.00     0.049 C 
ENDBRANCH   3   5
TORSDOF 1
