REMARK  3 active torsions:
REMARK  status: ('A' for Active; 'I' for Inactive)
REMARK    1  A    between atoms: C4_4  and  C9_9 
REMARK    2  A    between atoms: C8_8  and  C9_9 
REMARK    3  A    between atoms: C9_9  and  O11_11 
ROOT
HETATM    1  C1  UNL     1     -32.601   7.242   1.468  1.00 20.00     0.066 C 
HETATM    2  C6  UNL     1     -32.226   4.886   0.946  1.00 20.00     0.028 C 
HETATM    3  C8  UNL     1     -33.180   5.886   1.615  1.00 20.00     0.123 C 
HETATM    4  N10 UNL     1     -32.152   8.306   1.354  1.00 20.00    -0.197 NA
ENDROOT
BRANCH   3   5
HETATM    5  C9  UNL     1     -33.482   5.547   3.107  1.00 20.00     0.077 C 
HETATM    6  C7  UNL     1     -34.072   4.156   3.241  1.00 20.00     0.048 C 
BRANCH   5   7
HETATM    7  C4  UNL     1     -34.457   6.560   3.735  1.00 20.00    -0.012 A 
HETATM    8  C2  UNL     1     -35.740   6.031   4.333  1.00 20.00     0.013 A 
HETATM    9  C3  UNL     1     -35.778   6.795   3.041  1.00 20.00     0.013 A 
HETATM   10  C5  UNL     1     -33.795   7.731   4.408  1.00 20.00     0.018 C 
ENDBRANCH   5   7
BRANCH   5  11
HETATM   11  O11 UNL     1     -32.260   5.589   3.850  1.00 20.00    -0.388 OA
HETATM   12  H26 UNL     1     -31.669   4.945   3.434  1.00 20.00     0.210 HD
ENDBRANCH   5  11
ENDBRANCH   3   5
TORSDOF 3
