REMARK  3 active torsions:
REMARK  status: ('A' for Active; 'I' for Inactive)
REMARK    1  A    between atoms: C5_5  and  C7_7 
REMARK    2  A    between atoms: C5_5  and  O9_9 
REMARK    3  A    between atoms: C6_6  and  C7_7 
ROOT
HETATM    1  C1  UNL     1     -34.579   6.494   3.239  1.00 20.00     0.088 C 
HETATM    2  C7  UNL     1     -33.320   6.712   2.491  1.00 20.00     0.149 C 
HETATM    3  N8  UNL     1     -35.569   6.325   3.822  1.00 20.00    -0.195 NA
HETATM    4 CL10 UNL     1     -32.069   7.130   3.719  1.00 20.00    -0.100 Cl
ENDROOT
BRANCH   2   5
HETATM    5  C5  UNL     1     -33.498   7.917   1.543  1.00 20.00     0.208 C 
BRANCH   5   6
HETATM    6  O9  UNL     1     -32.237   8.451   1.145  1.00 20.00    -0.393 OA
HETATM    7  C4  UNL     1     -32.398   9.591   0.314  1.00 20.00     0.201 C 
ENDBRANCH   5   6
ENDBRANCH   2   5
BRANCH   2   8
HETATM    8  C6  UNL     1     -32.930   5.414   1.708  1.00 20.00     0.017 C 
HETATM    9  C2  UNL     1     -34.008   4.934   0.725  1.00 20.00     0.012 C 
HETATM   10  C3  UNL     1     -31.595   5.526   0.949  1.00 20.00     0.012 C 
ENDBRANCH   2   8
TORSDOF 3
