REMARK  3 active torsions:
REMARK  status: ('A' for Active; 'I' for Inactive)
REMARK    1  A    between atoms: C4_4  and  C7_7 
REMARK    2  A    between atoms: C6_6  and  C7_7 
REMARK    3  A    between atoms: C6_6  and  O9_9 
ROOT
HETATM    1  C1  UNL     1     -32.710   5.891   1.343  1.00 20.00     0.066 C 
HETATM    2  C7  UNL     1     -32.749   6.984   2.327  1.00 20.00     0.120 C 
HETATM    3  N8  UNL     1     -32.673   5.029   0.567  1.00 20.00    -0.197 NA
ENDROOT
BRANCH   2   4
HETATM    4  C4  UNL     1     -34.159   6.990   2.849  1.00 20.00     0.005 A 
HETATM    5  C2  UNL     1     -34.555   6.072   3.972  1.00 20.00     0.006 A 
HETATM    6  C3  UNL     1     -34.460   7.553   4.210  1.00 20.00     0.006 A 
ENDBRANCH   2   4
BRANCH   2   7
HETATM    7  C6  UNL     1     -32.335   8.322   1.718  1.00 20.00     0.186 C 
BRANCH   7   8
HETATM    8  O9  UNL     1     -33.203   8.690   0.652  1.00 20.00    -0.395 OA
HETATM    9  C5  UNL     1     -32.809   9.920   0.061  1.00 20.00     0.201 C 
ENDBRANCH   7   8
ENDBRANCH   2   7
TORSDOF 3
