REMARK  3 active torsions:
REMARK  status: ('A' for Active; 'I' for Inactive)
REMARK    1  A    between atoms: C3_3  and  C6_6 
REMARK    2  A    between atoms: C5_5  and  C6_6 
REMARK    3  A    between atoms: C5_5  and  O7_7 
ROOT
HETATM    1  C6  UNL     1     -33.681   6.341   2.425  1.00 20.00     0.110 C 
HETATM    2 CL8  UNL     1     -33.917   7.616   3.678  1.00 20.00    -0.122 Cl
ENDROOT
BRANCH   1   3
HETATM    3  C3  UNL     1     -32.723   6.815   1.388  1.00 20.00     0.006 A 
HETATM    4  C1  UNL     1     -32.715   8.259   0.968  1.00 20.00     0.006 A 
HETATM    5  C2  UNL     1     -31.572   7.703   1.771  1.00 20.00     0.006 A 
ENDBRANCH   1   3
BRANCH   1   6
HETATM    6  C5  UNL     1     -33.213   5.049   3.117  1.00 20.00     0.187 C 
BRANCH   6   7
HETATM    7  O7  UNL     1     -34.169   4.616   4.077  1.00 20.00    -0.394 OA
HETATM    8  C4  UNL     1     -33.782   3.390   4.680  1.00 20.00     0.201 C 
ENDBRANCH   6   7
ENDBRANCH   1   6
TORSDOF 3
