REMARK  0 active torsions:
REMARK  status: ('A' for Active; 'I' for Inactive)
ROOT
HETATM    1  C1  UNL     1     -33.420   3.575   4.663  1.00 20.00     0.128 C 
HETATM    2  C2  UNL     1     -32.635   4.867   4.386  1.00 20.00     0.088 C 
HETATM    3  C3  UNL     1     -34.764   4.273   4.396  1.00 20.00     0.088 C 
HETATM    4  C4  UNL     1     -32.449   8.000   2.955  1.00 20.00     0.000 C 
HETATM    5  C5  UNL     1     -33.068   7.592   1.625  1.00 20.00     0.000 C 
HETATM    6  C6  UNL     1     -33.362   7.894   4.172  1.00 20.00     0.001 C 
HETATM    7  C7  UNL     1     -33.009   6.084   1.392  1.00 20.00     0.001 C 
HETATM    8  C8  UNL     1     -34.428   6.803   4.178  1.00 20.00     0.010 C 
HETATM    9  C9  UNL     1     -34.028   5.268   2.177  1.00 20.00     0.010 C 
HETATM   10  C10 UNL     1     -33.938   5.428   3.707  1.00 20.00    -0.027 C 
HETATM   11  O11 UNL     1     -33.103   2.444   4.962  1.00 20.00    -0.298 OA
ENDROOT
TORSDOF 0
