REMARK  5 active torsions:
REMARK  status: ('A' for Active; 'I' for Inactive)
REMARK    1  A    between atoms: C4_4  and  C5_5 
REMARK    2  A    between atoms: C4_4  and  O8_8 
REMARK    3  A    between atoms: C5_5  and  S9_9 
REMARK    4  A    between atoms: C6_6  and  C7_7 
REMARK    5  A    between atoms: C7_7  and  O8_8 
ROOT
HETATM    1  C3  UNL     1     -33.028   6.092   1.348  1.00 20.00     0.040 C 
HETATM    2  C7  UNL     1     -32.619   6.765   2.655  1.00 20.00     0.120 C 
ENDROOT
BRANCH   2   3
HETATM    3  C6  UNL     1     -33.816   7.236   3.507  1.00 20.00     0.006 C 
HETATM    4  C1  UNL     1     -33.379   7.968   4.777  1.00 20.00     0.012 C 
HETATM    5  C2  UNL     1     -34.716   6.052   3.885  1.00 20.00     0.012 C 
ENDBRANCH   2   3
BRANCH   2   6
HETATM    6  O8  UNL     1     -31.817   7.902   2.330  1.00 20.00    -0.385 OA
BRANCH   6   7
HETATM    7  C4  UNL     1     -32.328   8.585   1.198  1.00 20.00     0.178 C 
BRANCH   7   8
HETATM    8  C5  UNL     1     -31.795  10.009   1.163  1.00 20.00     0.097 C 
BRANCH   8   9
HETATM    9  S9  UNL     1     -32.424  10.919  -0.281  1.00 20.00    -0.180 SA
HETATM   10  H25 UNL     1     -31.790  12.067  -0.008  1.00 20.00     0.101 HD
ENDBRANCH   8   9
ENDBRANCH   7   8
ENDBRANCH   6   7
ENDBRANCH   2   6
TORSDOF 5
