REMARK  0 active torsions:
REMARK  status: ('A' for Active; 'I' for Inactive)
ROOT
HETATM    1  C1  UNL     1     -33.974   7.192   4.115  1.00 20.00     0.005 C 
HETATM    2  C2  UNL     1     -33.127   7.940   3.219  1.00 20.00     0.041 C 
HETATM    3  C3  UNL     1     -34.675   6.124   3.696  1.00 20.00    -0.081 C 
HETATM    4  C4  UNL     1     -32.828   7.473   2.000  1.00 20.00     0.128 C 
HETATM    5  C5  UNL     1     -34.587   5.645   2.263  1.00 20.00     0.078 C 
HETATM    6  C6  UNL     1     -33.361   6.169   1.494  1.00 20.00     0.235 C 
HETATM    7  C7  UNL     1     -35.597   5.366   4.602  1.00 20.00     0.043 C 
HETATM    8  F8  UNL     1     -32.019   8.203   1.201  1.00 20.00    -0.208 F 
HETATM    9  F9  UNL     1     -32.379   5.224   1.579  1.00 20.00    -0.242 F 
ENDROOT
TORSDOF 0
