REMARK  4 active torsions:
REMARK  status: ('A' for Active; 'I' for Inactive)
REMARK    1  A    between atoms: C3_3  and  C6_6 
REMARK    2  A    between atoms: C5_5  and  C6_6 
REMARK    3  A    between atoms: C5_5  and  O7_7 
REMARK    4  A    between atoms: C6_6  and  S8_8 
ROOT
HETATM    1  C6  UNL     1     -32.925   6.883   2.359  1.00 20.00     0.072 C 
ENDROOT
BRANCH   1   2
HETATM    2  C3  UNL     1     -33.823   6.420   3.502  1.00 20.00     0.001 A 
HETATM    3  C1  UNL     1     -34.279   7.397   4.550  1.00 20.00     0.006 A 
HETATM    4  C2  UNL     1     -35.263   6.850   3.555  1.00 20.00     0.006 A 
ENDBRANCH   1   2
BRANCH   1   5
HETATM    5  C5  UNL     1     -33.331   8.252   1.810  1.00 20.00     0.182 C 
BRANCH   5   6
HETATM    6  O7  UNL     1     -32.465   8.667   0.762  1.00 20.00    -0.395 OA
HETATM    7  C4  UNL     1     -32.842   9.936   0.245  1.00 20.00     0.201 C 
ENDBRANCH   5   6
ENDBRANCH   1   5
BRANCH   1   8
HETATM    8  S8  UNL     1     -32.953   5.633   1.025  1.00 20.00    -0.175 SA
HETATM    9  H20 UNL     1     -32.117   6.291   0.213  1.00 20.00     0.102 HD
ENDBRANCH   1   8
TORSDOF 4
