REMARK  3 active torsions:
REMARK  status: ('A' for Active; 'I' for Inactive)
REMARK    1  A    between atoms: C3_3  and  C6_6 
REMARK    2  A    between atoms: C5_5  and  C6_6 
REMARK    3  A    between atoms: C5_5  and  O7_7 
ROOT
HETATM    1  C6  UNL     1     -32.929   6.592   2.183  1.00 20.00     0.110 C 
HETATM    2 CL8  UNL     1     -31.937   5.341   1.345  1.00 20.00    -0.122 Cl
ENDROOT
BRANCH   1   3
HETATM    3  C3  UNL     1     -34.193   5.990   2.691  1.00 20.00     0.006 A 
HETATM    4  C1  UNL     1     -34.180   5.131   3.925  1.00 20.00     0.006 A 
HETATM    5  C2  UNL     1     -34.812   6.494   3.965  1.00 20.00     0.006 A 
ENDBRANCH   1   3
BRANCH   1   6
HETATM    6  C5  UNL     1     -33.175   7.752   1.204  1.00 20.00     0.187 C 
BRANCH   6   7
HETATM    7  O7  UNL     1     -32.013   8.562   1.078  1.00 20.00    -0.394 OA
HETATM    8  C4  UNL     1     -32.204   9.602   0.129  1.00 20.00     0.201 C 
ENDBRANCH   6   7
ENDBRANCH   1   6
TORSDOF 3
