REMARK  4 active torsions:
REMARK  status: ('A' for Active; 'I' for Inactive)
REMARK    1  A    between atoms: C4_4  and  C7_7 
REMARK    2  A    between atoms: C4_4  and  C8_8 
REMARK    3  A    between atoms: C7_7  and  C9_9 
REMARK    4  A    between atoms: C8_8  and  C10_10 
ROOT
HETATM    1  C1  UNL     1     -33.901   6.901   3.894  1.00 20.00     0.128 C 
HETATM    2  C2  UNL     1     -32.633   7.651   3.447  1.00 20.00     0.088 C 
HETATM    3  C3  UNL     1     -33.855   5.973   2.667  1.00 20.00     0.088 C 
HETATM    4  C4  UNL     1     -32.799   6.952   2.058  1.00 20.00    -0.027 C 
HETATM    5  O11 UNL     1     -34.651   7.008   4.840  1.00 20.00    -0.298 OA
ENDROOT
BRANCH   4   6
HETATM    6  C7  UNL     1     -33.384   7.876   0.988  1.00 20.00     0.010 C 
BRANCH   6   7
HETATM    7  C9  UNL     1     -32.323   8.821   0.438  1.00 20.00    -0.004 C 
HETATM    8  C5  UNL     1     -32.899   9.722  -0.643  1.00 20.00     0.005 C 
ENDBRANCH   6   7
ENDBRANCH   4   6
BRANCH   4   9
HETATM    9  C8  UNL     1     -31.532   6.258   1.567  1.00 20.00     0.010 C 
BRANCH   9  10
HETATM   10  C10 UNL     1     -31.764   5.562   0.230  1.00 20.00    -0.004 C 
HETATM   11  C6  UNL     1     -32.835   4.489   0.343  1.00 20.00     0.005 C 
ENDBRANCH   9  10
ENDBRANCH   4   9
TORSDOF 4
