REMARK  1 active torsions:
REMARK  status: ('A' for Active; 'I' for Inactive)
REMARK    1  A    between atoms: C6_6  and  O8_8 
ROOT
HETATM    1  C1  UNL     1     -31.882   6.873   1.907  1.00 20.00     0.002 C 
HETATM    2  C2  UNL     1     -33.008   7.925   2.073  1.00 20.00     0.010 C 
HETATM    3  C3  UNL     1     -32.946   5.771   2.142  1.00 20.00     0.010 C 
HETATM    4  C4  UNL     1     -33.873   6.881   4.295  1.00 20.00     0.041 C 
HETATM    5  C5  UNL     1     -35.287   6.787   2.648  1.00 20.00     0.041 C 
HETATM    6  C6  UNL     1     -35.347   6.413   4.154  1.00 20.00     0.119 C 
HETATM    7  C7  UNL     1     -33.791   6.850   2.786  1.00 20.00    -0.036 C 
ENDROOT
BRANCH   6   8
HETATM    8  O8  UNL     1     -35.605   5.028   4.456  1.00 20.00    -0.396 OA
HETATM    9  H20 UNL     1     -36.553   4.901   4.322  1.00 20.00     0.210 HD
ENDBRANCH   6   8
TORSDOF 1
