REMARK  4 active torsions:
REMARK  status: ('A' for Active; 'I' for Inactive)
REMARK    1  A    between atoms: C2_2  and  C7_7 
REMARK    2  A    between atoms: C7_7  and  O11_11 
REMARK    3  A    between atoms: C8_8  and  C9_9 
REMARK    4  A    between atoms: C9_9  and  O11_11 
ROOT
HETATM    1  O11 UNL     1     -32.813   7.478   1.964  1.00 20.00    -0.383 OA
ENDROOT
BRANCH   1   2
HETATM    2  C7  UNL     1     -32.439   7.956   0.682  1.00 20.00     0.208 C 
BRANCH   2   3
HETATM    3  C2  UNL     1     -32.540   9.467   0.670  1.00 20.00     0.100 A 
HETATM    4  C1  UNL     1     -31.781  10.255  -0.370  1.00 20.00     0.208 A 
HETATM    5  O10 UNL     1     -33.188   9.993  -0.496  1.00 20.00    -0.373 OA
HETATM    6  C3  UNL     1     -32.955  10.133   1.941  1.00 20.00     0.050 C 
ENDBRANCH   2   3
ENDBRANCH   1   2
BRANCH   1   7
HETATM    7  C9  UNL     1     -33.180   6.098   1.914  1.00 20.00     0.120 C 
HETATM    8  C6  UNL     1     -31.975   5.310   1.411  1.00 20.00     0.040 C 
BRANCH   7   9
HETATM    9  C8  UNL     1     -33.657   5.665   3.317  1.00 20.00     0.006 C 
HETATM   10  C4  UNL     1     -34.137   4.212   3.350  1.00 20.00     0.012 C 
HETATM   11  C5  UNL     1     -34.778   6.583   3.820  1.00 20.00     0.012 C 
ENDBRANCH   7   9
ENDBRANCH   1   7
TORSDOF 4
