REMARK  3 active torsions:
REMARK  status: ('A' for Active; 'I' for Inactive)
REMARK    1  A    between atoms: C3_3  and  C6_6 
REMARK    2  A    between atoms: C4_4  and  O8_8 
REMARK    3  A    between atoms: C6_6  and  C7_7 
ROOT
HETATM    1  C1  UNL     1     -34.648   7.769   2.825  1.00 20.00     0.036 C 
HETATM    2  C2  UNL     1     -33.788   5.834   3.092  1.00 20.00     0.036 C 
HETATM    3  C3  UNL     1     -33.591   6.954   2.042  1.00 20.00    -0.010 C 
HETATM    4  C4  UNL     1     -35.190   6.427   3.369  1.00 20.00     0.118 C 
ENDROOT
BRANCH   3   5
HETATM    5  C6  UNL     1     -32.204   7.557   1.946  1.00 20.00     0.004 C 
BRANCH   5   6
HETATM    6  C7  UNL     1     -32.120   8.606   0.836  1.00 20.00    -0.004 C 
HETATM    7  C5  UNL     1     -33.112   9.737   1.056  1.00 20.00     0.005 C 
ENDBRANCH   5   6
ENDBRANCH   3   5
BRANCH   4   8
HETATM    8  O8  UNL     1     -35.616   6.432   4.742  1.00 20.00    -0.396 OA
HETATM    9  H22 UNL     1     -35.923   5.535   4.927  1.00 20.00     0.210 HD
ENDBRANCH   4   8
TORSDOF 3
