REMARK  3 active torsions:
REMARK  status: ('A' for Active; 'I' for Inactive)
REMARK    1  A    between atoms: C4_4  and  O7_7 
REMARK    2  A    between atoms: C5_5  and  C6_6 
REMARK    3  A    between atoms: C6_6  and  O7_7 
ROOT
HETATM    1  C3  UNL     1     -32.951   5.462   1.853  1.00 20.00     0.040 C 
HETATM    2  C6  UNL     1     -33.498   6.723   2.513  1.00 20.00     0.122 C 
ENDROOT
BRANCH   2   3
HETATM    3  C5  UNL     1     -33.935   6.511   3.977  1.00 20.00     0.006 C 
HETATM    4  C1  UNL     1     -35.085   5.510   4.106  1.00 20.00     0.012 C 
HETATM    5  C2  UNL     1     -34.344   7.842   4.623  1.00 20.00     0.012 C 
ENDBRANCH   2   3
BRANCH   2   6
HETATM    6  O7  UNL     1     -32.470   7.715   2.483  1.00 20.00    -0.371 OA
BRANCH   6   7
HETATM    7  C4  UNL     1     -32.395   8.339   1.212  1.00 20.00     0.282 C 
HETATM    8 CL8  UNL     1     -31.076   9.524   1.242  1.00 20.00    -0.102 Cl
ENDBRANCH   6   7
ENDBRANCH   2   6
TORSDOF 3
