REMARK  3 active torsions:
REMARK  status: ('A' for Active; 'I' for Inactive)
REMARK    1  A    between atoms: C3_3  and  C7_7 
REMARK    2  A    between atoms: C6_6  and  C7_7 
REMARK    3  A    between atoms: C7_7  and  O8_8 
ROOT
HETATM    1  C7  UNL     1     -33.707   6.930   2.685  1.00 20.00     0.126 C 
ENDROOT
BRANCH   1   2
HETATM    2  C3  UNL     1     -32.470   7.138   1.855  1.00 20.00    -0.018 A 
HETATM    3  C1  UNL     1     -31.475   8.179   2.315  1.00 20.00     0.012 A 
HETATM    4  C2  UNL     1     -32.329   8.444   1.108  1.00 20.00     0.012 A 
HETATM    5  C4  UNL     1     -31.936   5.892   1.204  1.00 20.00     0.018 C 
ENDBRANCH   1   2
BRANCH   1   6
HETATM    6  C6  UNL     1     -33.786   5.502   3.248  1.00 20.00     0.028 C 
HETATM    7  C5  UNL     1     -34.998   5.284   4.144  1.00 20.00     0.007 C 
ENDBRANCH   1   6
BRANCH   1   8
HETATM    8  O8  UNL     1     -33.709   7.850   3.781  1.00 20.00    -0.395 OA
HETATM    9  H22 UNL     1     -32.910   7.660   4.295  1.00 20.00     0.210 HD
ENDBRANCH   1   8
TORSDOF 3
