REMARK  1 active torsions:
REMARK  status: ('A' for Active; 'I' for Inactive)
REMARK    1  A    between atoms: C3_3  and  C7_7 
ROOT
HETATM    1  C1  UNL     1     -32.517   9.542   0.286  1.00 20.00     0.087 C 
HETATM    2  C2  UNL     1     -32.410   8.402   1.126  1.00 20.00     0.090 C 
HETATM    3  C3  UNL     1     -33.248   8.204   2.152  1.00 20.00    -0.011 C 
HETATM    4  N8  UNL     1     -32.601  10.472  -0.402  1.00 20.00    -0.192 NA
ENDROOT
BRANCH   3   5
HETATM    5  C7  UNL     1     -33.178   7.039   3.051  1.00 20.00     0.009 C 
HETATM    6  C5  UNL     1     -34.379   6.860   4.015  1.00 20.00     0.008 C 
HETATM    7  C4  UNL     1     -34.242   5.341   3.784  1.00 20.00     0.001 C 
HETATM    8  C6  UNL     1     -33.593   5.682   2.427  1.00 20.00     0.008 C 
ENDBRANCH   3   5
TORSDOF 1
