REMARK  2 active torsions:
REMARK  status: ('A' for Active; 'I' for Inactive)
REMARK    1  A    between atoms: C7_7  and  C9_9 
REMARK    2  A    between atoms: C9_9  and  O11_11 
ROOT
HETATM    1  C1  UNL     1     -32.246   8.741   1.258  1.00 20.00     0.010 A 
HETATM    2  C2  UNL     1     -32.897   6.228   1.692  1.00 20.00     0.012 C 
HETATM    3  C3  UNL     1     -33.047   7.777   3.572  1.00 20.00     0.012 C 
HETATM    4  C5  UNL     1     -31.868   7.304   1.504  1.00 20.00    -0.010 A 
HETATM    5  C6  UNL     1     -31.959   8.250   2.652  1.00 20.00    -0.010 A 
HETATM    6  C7  UNL     1     -33.886   6.792   2.732  1.00 20.00     0.021 C 
ENDROOT
BRANCH   6   7
HETATM    7  C9  UNL     1     -34.536   5.727   3.558  1.00 20.00     0.065 A 
HETATM    8  C4  UNL     1     -34.775   4.374   2.957  1.00 20.00     0.045 A 
HETATM    9  C8  UNL     1     -33.722   4.553   4.020  1.00 20.00     0.019 A 
HETATM   10  C10 UNL     1     -33.920   3.964   5.375  1.00 20.00     0.013 C 
BRANCH   7  11
HETATM   11  O11 UNL     1     -35.552   6.233   4.430  1.00 20.00    -0.389 OA
HETATM   12  H27 UNL     1     -35.246   7.102   4.726  1.00 20.00     0.210 HD
ENDBRANCH   7  11
ENDBRANCH   6   7
TORSDOF 2
