REMARK  4 active torsions:
REMARK  status: ('A' for Active; 'I' for Inactive)
REMARK    1  A    between atoms: C2_2  and  C8_8 
REMARK    2  A    between atoms: C3_3  and  C8_8 
REMARK    3  A    between atoms: C3_3  and  C9_9 
REMARK    4  A    between atoms: C6_6  and  C9_9 
ROOT
HETATM    1  C1  UNL     1     -32.771   9.606   0.275  1.00 20.00    -0.111 C 
HETATM    2  C2  UNL     1     -32.290   8.647   0.816  1.00 20.00    -0.100 C 
HETATM    3  C7  UNL     1     -33.357  10.773  -0.383  1.00 20.00     0.112 C 
ENDROOT
BRANCH   2   4
HETATM    4  C8  UNL     1     -31.696   7.480   1.477  1.00 20.00     0.172 C 
BRANCH   4   5
HETATM    5  C3  UNL     1     -32.722   6.410   1.803  1.00 20.00     0.138 C 
HETATM    6  O10 UNL     1     -32.668   5.275   1.329  1.00 20.00    -0.297 OA
BRANCH   5   7
HETATM    7  C9  UNL     1     -33.826   6.832   2.755  1.00 20.00     0.083 C 
BRANCH   7   8
HETATM    8  C6  UNL     1     -34.834   5.760   3.025  1.00 20.00    -0.007 A 
HETATM    9  C4  UNL     1     -34.632   4.799   4.163  1.00 20.00     0.005 A 
HETATM   10  C5  UNL     1     -35.715   5.838   4.241  1.00 20.00     0.005 A 
ENDBRANCH   7   8
ENDBRANCH   5   7
ENDBRANCH   4   5
ENDBRANCH   2   4
TORSDOF 4
