REMARK  3 active torsions:
REMARK  status: ('A' for Active; 'I' for Inactive)
REMARK    1  A    between atoms: C3_3  and  C7_7 
REMARK    2  A    between atoms: C3_3  and  C8_8 
REMARK    3  A    between atoms: C6_6  and  C8_8 
ROOT
HETATM    1  C1  UNL     1     -32.367   9.343  -0.266  1.00 20.00     0.012 C 
HETATM    2  C2  UNL     1     -32.026   8.560   0.578  1.00 20.00    -0.110 C 
HETATM    3  C7  UNL     1     -31.604   7.608   1.612  1.00 20.00     0.171 C 
ENDROOT
BRANCH   3   4
HETATM    4  C3  UNL     1     -32.494   6.379   1.673  1.00 20.00     0.138 C 
HETATM    5  O9  UNL     1     -32.059   5.239   1.513  1.00 20.00    -0.297 OA
BRANCH   4   6
HETATM    6  C8  UNL     1     -33.963   6.650   1.944  1.00 20.00     0.083 C 
BRANCH   6   7
HETATM    7  C6  UNL     1     -34.324   6.626   3.395  1.00 20.00    -0.007 A 
HETATM    8  C4  UNL     1     -35.754   6.434   3.818  1.00 20.00     0.005 A 
HETATM    9  C5  UNL     1     -34.749   5.340   4.049  1.00 20.00     0.005 A 
ENDBRANCH   6   7
ENDBRANCH   4   6
ENDBRANCH   3   4
TORSDOF 3
