REMARK  1 active torsions:
REMARK  status: ('A' for Active; 'I' for Inactive)
REMARK    1  A    between atoms: C8_8  and  C9_9 
ROOT
HETATM    1  C1  UNL     1     -33.949   6.255   2.916  1.00 20.00     0.074 C 
HETATM    2  C2  UNL     1     -33.115   5.813   1.971  1.00 20.00     0.139 C 
HETATM    3  C3  UNL     1     -33.637   7.543   3.566  1.00 20.00     0.153 C 
HETATM    4  C4  UNL     1     -32.308   8.170   3.228  1.00 20.00     0.116 C 
HETATM    5  C9  UNL     1     -31.913   7.852   1.789  1.00 20.00     0.139 C 
HETATM    6  O10 UNL     1     -34.403   8.026   4.395  1.00 20.00    -0.293 OA
HETATM    7  O11 UNL     1     -32.021   6.459   1.463  1.00 20.00    -0.357 OA
ENDROOT
BRANCH   5   8
HETATM    8  C8  UNL     1     -32.714   8.666   0.794  1.00 20.00     0.015 C 
HETATM    9  C6  UNL     1     -32.249   8.610  -0.684  1.00 20.00     0.007 C 
HETATM   10  C5  UNL     1     -32.633  10.101  -0.784  1.00 20.00     0.001 C 
HETATM   11  C7  UNL     1     -32.414  10.186   0.741  1.00 20.00     0.007 C 
ENDBRANCH   5   8
TORSDOF 1
