REMARK  4 active torsions:
REMARK  status: ('A' for Active; 'I' for Inactive)
REMARK    1  A    between atoms: C3_3  and  C7_7 
REMARK    2  A    between atoms: C6_6  and  C7_7 
REMARK    3  A    between atoms: C6_6  and  O9_9 
REMARK    4  A    between atoms: C7_7  and  C8_8 
ROOT
HETATM    1  C7  UNL     1     -33.312   7.182   2.349  1.00 20.00     0.032 C 
ENDROOT
BRANCH   1   2
HETATM    2  C3  UNL     1     -32.909   5.906   1.639  1.00 20.00    -0.007 A 
HETATM    3  C1  UNL     1     -33.943   5.074   0.932  1.00 20.00     0.005 A 
HETATM    4  C2  UNL     1     -32.922   5.840   0.137  1.00 20.00     0.005 A 
ENDBRANCH   1   2
BRANCH   1   5
HETATM    5  C6  UNL     1     -32.107   8.131   2.472  1.00 20.00     0.173 C 
BRANCH   5   6
HETATM    6  O9  UNL     1     -31.627   8.460   1.173  1.00 20.00    -0.396 OA
HETATM    7  C5  UNL     1     -32.389   9.505   0.587  1.00 20.00     0.201 C 
ENDBRANCH   5   6
ENDBRANCH   1   5
BRANCH   1   8
HETATM    8  C8  UNL     1     -33.971   6.939   3.729  1.00 20.00     0.084 C 
HETATM    9  C4  UNL     1     -33.926   8.155   4.650  1.00 20.00     0.027 C 
HETATM   10 CL10 UNL     1     -35.666   6.375   3.584  1.00 20.00    -0.125 Cl
ENDBRANCH   1   8
TORSDOF 4
