REMARK  3 active torsions:
REMARK  status: ('A' for Active; 'I' for Inactive)
REMARK    1  A    between atoms: C5_5  and  C8_8 
REMARK    2  A    between atoms: C6_6  and  C8_8 
REMARK    3  A    between atoms: C8_8  and  O9_9 
ROOT
HETATM    1  C8  UNL     1     -33.211   6.407   1.672  1.00 20.00     0.130 C 
ENDROOT
BRANCH   1   2
HETATM    2  C5  UNL     1     -32.184   7.535   1.758  1.00 20.00     0.015 A 
HETATM    3  C1  UNL     1     -31.782   8.290   0.522  1.00 20.00     0.007 A 
HETATM    4  C2  UNL     1     -32.613   8.964   1.578  1.00 20.00     0.007 A 
ENDBRANCH   1   2
BRANCH   1   5
HETATM    5  C6  UNL     1     -33.794   6.056   3.013  1.00 20.00    -0.018 A 
HETATM    6  C3  UNL     1     -35.060   6.762   3.442  1.00 20.00     0.012 A 
HETATM    7  C4  UNL     1     -33.754   7.106   4.099  1.00 20.00     0.012 A 
HETATM    8  C7  UNL     1     -33.619   4.618   3.415  1.00 20.00     0.018 C 
ENDBRANCH   1   5
BRANCH   1   9
HETATM    9  O9  UNL     1     -32.578   5.258   1.103  1.00 20.00    -0.394 OA
HETATM   10  H23 UNL     1     -33.256   4.567   1.064  1.00 20.00     0.210 HD
ENDBRANCH   1   9
TORSDOF 3
