REMARK  3 active torsions:
REMARK  status: ('A' for Active; 'I' for Inactive)
REMARK    1  A    between atoms: C3_3  and  C8_8 
REMARK    2  A    between atoms: C8_8  and  C9_9 
REMARK    3  A    between atoms: C8_8  and  O10_10 
ROOT
HETATM    1  C8  UNL     1     -33.761   8.196   2.327  1.00 20.00     0.133 C 
ENDROOT
BRANCH   1   2
HETATM    2  C3  UNL     1     -34.195   7.435   3.578  1.00 20.00    -0.017 A 
HETATM    3  C1  UNL     1     -34.080   5.929   3.566  1.00 20.00     0.012 A 
HETATM    4  C2  UNL     1     -35.434   6.574   3.489  1.00 20.00     0.012 A 
HETATM    5  C4  UNL     1     -33.927   8.153   4.872  1.00 20.00     0.018 C 
ENDBRANCH   1   2
BRANCH   1   6
HETATM    6  C9  UNL     1     -32.263   8.036   1.928  1.00 20.00    -0.025 C 
HETATM    7  C5  UNL     1     -31.948   8.868   0.671  1.00 20.00     0.017 C 
HETATM    8  C6  UNL     1     -31.375   8.550   3.081  1.00 20.00     0.017 C 
HETATM    9  C7  UNL     1     -31.885   6.568   1.655  1.00 20.00     0.017 C 
ENDBRANCH   1   6
BRANCH   1  10
HETATM   10  O10 UNL     1     -34.089   9.575   2.514  1.00 20.00    -0.394 OA
HETATM   11  H28 UNL     1     -33.601   9.866   3.298  1.00 20.00     0.210 HD
ENDBRANCH   1  10
TORSDOF 3
