REMARK  5 active torsions:
REMARK  status: ('A' for Active; 'I' for Inactive)
REMARK    1  A    between atoms: C1_1  and  C7_7 
REMARK    2  A    between atoms: C1_1  and  C9_9 
REMARK    3  A    between atoms: C4_4  and  C9_9 
REMARK    4  A    between atoms: C8_8  and  C9_9 
REMARK    5  A    between atoms: C8_8  and  O11_11 
ROOT
HETATM    1  C9  UNL     1     -32.047   7.973   2.258  1.00 20.00     0.083 C 
ENDROOT
BRANCH   1   2
HETATM    2  C1  UNL     1     -33.208   7.837   3.248  1.00 20.00     0.133 C 
HETATM    3  O10 UNL     1     -33.520   8.753   4.010  1.00 20.00    -0.297 OA
BRANCH   2   4
HETATM    4  C7  UNL     1     -33.936   6.501   3.265  1.00 20.00     0.074 C 
HETATM    5  C5  UNL     1     -35.087   6.479   4.255  1.00 20.00     0.013 C 
ENDBRANCH   2   4
ENDBRANCH   1   2
BRANCH   1   6
HETATM    6  C4  UNL     1     -32.502   8.559   0.946  1.00 20.00    -0.001 A 
HETATM    7  C2  UNL     1     -32.603  10.050   0.776  1.00 20.00     0.006 A 
HETATM    8  C3  UNL     1     -31.526   9.283   0.061  1.00 20.00     0.006 A 
ENDBRANCH   1   6
BRANCH   1   9
HETATM    9  C8  UNL     1     -31.384   6.611   2.038  1.00 20.00     0.179 C 
BRANCH   9  10
HETATM   10  O11 UNL     1     -32.150   5.853   1.110  1.00 20.00    -0.395 OA
HETATM   11  C6  UNL     1     -31.543   4.597   0.837  1.00 20.00     0.201 C 
ENDBRANCH   9  10
ENDBRANCH   1   9
TORSDOF 5
