REMARK  5 active torsions:
REMARK  status: ('A' for Active; 'I' for Inactive)
REMARK    1  A    between atoms: C2_2  and  C8_8 
REMARK    2  A    between atoms: C2_2  and  C9_9 
REMARK    3  A    between atoms: C3_3  and  C8_8 
REMARK    4  A    between atoms: C3_3  and  C10_10 
REMARK    5  A    between atoms: C6_6  and  C10_10 
ROOT
HETATM    1  C3  UNL     1     -32.382   6.577   1.462  1.00 20.00     0.131 C 
HETATM    2  O11 UNL     1     -31.951   5.483   1.100  1.00 20.00    -0.298 OA
ENDROOT
BRANCH   1   3
HETATM    3  C8  UNL     1     -31.538   7.846   1.421  1.00 20.00     0.111 C 
BRANCH   3   4
HETATM    4  C2  UNL     1     -31.596   8.515   0.072  1.00 20.00    -0.083 C 
HETATM    5  C1  UNL     1     -30.714   8.208  -0.893  1.00 20.00     0.014 C 
BRANCH   4   6
HETATM    6  C9  UNL     1     -32.676   9.547  -0.156  1.00 20.00     0.029 C 
HETATM    7  C7  UNL     1     -32.234  10.954   0.223  1.00 20.00     0.010 C 
ENDBRANCH   4   6
ENDBRANCH   3   4
ENDBRANCH   1   3
BRANCH   1   8
HETATM    8  C10 UNL     1     -33.811   6.761   1.942  1.00 20.00     0.083 C 
BRANCH   8   9
HETATM    9  C6  UNL     1     -33.980   6.577   3.417  1.00 20.00    -0.008 A 
HETATM   10  C4  UNL     1     -35.339   6.286   3.993  1.00 20.00     0.005 A 
HETATM   11  C5  UNL     1     -34.283   5.216   3.980  1.00 20.00     0.005 A 
ENDBRANCH   8   9
ENDBRANCH   1   8
TORSDOF 5
