REMARK  3 active torsions:
REMARK  status: ('A' for Active; 'I' for Inactive)
REMARK    1  A    between atoms: C5_5  and  C8_8 
REMARK    2  A    between atoms: C7_7  and  C8_8 
REMARK    3  A    between atoms: C8_8  and  O9_9 
ROOT
HETATM    1  C1  UNL     1     -31.567   8.588   0.652  1.00 20.00     0.012 C 
HETATM    2  C2  UNL     1     -32.154   8.145   1.601  1.00 20.00    -0.115 C 
HETATM    3  C7  UNL     1     -32.873   7.606   2.768  1.00 20.00     0.125 C 
ENDROOT
BRANCH   3   4
HETATM    4  C8  UNL     1     -33.468   6.216   2.488  1.00 20.00     0.137 C 
BRANCH   4   5
HETATM    5  C5  UNL     1     -34.135   5.638   3.706  1.00 20.00    -0.017 A 
HETATM    6  C3  UNL     1     -35.615   5.880   3.885  1.00 20.00     0.012 A 
HETATM    7  C4  UNL     1     -34.630   6.596   4.764  1.00 20.00     0.012 A 
HETATM    8  C6  UNL     1     -33.577   4.316   4.156  1.00 20.00     0.018 C 
ENDBRANCH   4   5
BRANCH   4   9
HETATM    9  O9  UNL     1     -32.402   5.352   2.076  1.00 20.00    -0.394 OA
HETATM   10  H21 UNL     1     -32.008   5.765   1.295  1.00 20.00     0.210 HD
ENDBRANCH   4   9
ENDBRANCH   3   4
TORSDOF 3
