REMARK  5 active torsions:
REMARK  status: ('A' for Active; 'I' for Inactive)
REMARK    1  A    between atoms: C3_3  and  C9_9 
REMARK    2  A    between atoms: C7_7  and  C10_10 
REMARK    3  A    between atoms: C8_8  and  C10_10 
REMARK    4  A    between atoms: C9_9  and  C10_10 
REMARK    5  A    between atoms: C9_9  and  O11_11 
ROOT
HETATM    1  C9  UNL     1     -33.102   6.466   3.980  1.00 20.00     0.130 C 
ENDROOT
BRANCH   1   2
HETATM    2  C3  UNL     1     -34.129   5.376   4.270  1.00 20.00    -0.018 A 
HETATM    3  C1  UNL     1     -33.808   4.370   5.352  1.00 20.00     0.012 A 
HETATM    4  C2  UNL     1     -33.771   3.953   3.909  1.00 20.00     0.012 A 
HETATM    5  C4  UNL     1     -35.561   5.806   4.110  1.00 20.00     0.018 C 
ENDBRANCH   1   2
BRANCH   1   6
HETATM    6  C10 UNL     1     -33.165   7.019   2.532  1.00 20.00     0.014 C 
BRANCH   6   7
HETATM    7  C7  UNL     1     -32.977   5.931   1.452  1.00 20.00     0.002 C 
HETATM    8  C5  UNL     1     -31.630   5.221   1.483  1.00 20.00     0.005 C 
ENDBRANCH   6   7
BRANCH   6   9
HETATM    9  C8  UNL     1     -32.177   8.203   2.379  1.00 20.00     0.002 C 
HETATM   10  C6  UNL     1     -32.235   8.892   1.022  1.00 20.00     0.005 C 
ENDBRANCH   6   9
ENDBRANCH   1   6
BRANCH   1  11
HETATM   11  O11 UNL     1     -33.348   7.542   4.890  1.00 20.00    -0.394 OA
HETATM   12  H31 UNL     1     -34.253   7.842   4.717  1.00 20.00     0.210 HD
ENDBRANCH   1  11
TORSDOF 5
