REMARK  3 active torsions:
REMARK  status: ('A' for Active; 'I' for Inactive)
REMARK    1  A    between atoms: C1_1  and  C6_6 
REMARK    2  A    between atoms: C2_2  and  C8_8 
REMARK    3  A    between atoms: C2_2  and  C9_9 
ROOT
HETATM    1  C1  UNL     1     -33.065   7.870   2.493  1.00 20.00    -0.018 C 
HETATM    2  C2  UNL     1     -31.984   7.598   1.736  1.00 20.00    -0.070 C 
ENDROOT
BRANCH   1   3
HETATM    3  C6  UNL     1     -33.792   6.834   3.247  1.00 20.00     0.008 C 
HETATM    4  C4  UNL     1     -34.683   7.347   4.407  1.00 20.00     0.008 C 
HETATM    5  C3  UNL     1     -35.697   6.254   4.013  1.00 20.00     0.001 C 
HETATM    6  C5  UNL     1     -35.097   6.317   2.592  1.00 20.00     0.008 C 
ENDBRANCH   1   3
BRANCH   2   7
HETATM    7  C8  UNL     1     -31.478   6.172   1.644  1.00 20.00     0.030 C 
HETATM    8  C7  UNL     1     -32.116   5.398   0.498  1.00 20.00     0.010 C 
ENDBRANCH   2   7
BRANCH   2   9
HETATM    9  C9  UNL     1     -31.215   8.633   0.957  1.00 20.00     0.148 C 
HETATM   10 CL10 UNL     1     -32.272   9.428  -0.232  1.00 20.00    -0.126 Cl
ENDBRANCH   2   9
TORSDOF 3
