REMARK  3 active torsions:
REMARK  status: ('A' for Active; 'I' for Inactive)
REMARK    1  A    between atoms: C1_1  and  C4_4 
REMARK    2  A    between atoms: C1_1  and  C7_7 
REMARK    3  A    between atoms: C7_7  and  O9_9 
ROOT
HETATM    1  C1  UNL     1     -33.270   6.273   2.485  1.00 20.00     0.158 C 
HETATM    2  O8  UNL     1     -32.868   5.473   1.641  1.00 20.00    -0.295 OA
ENDROOT
BRANCH   1   3
HETATM    3  C4  UNL     1     -34.105   5.832   3.629  1.00 20.00     0.019 A 
HETATM    4  C2  UNL     1     -35.484   6.446   3.749  1.00 20.00     0.018 A 
HETATM    5  C3  UNL     1     -34.402   6.862   4.698  1.00 20.00     0.018 A 
HETATM    6  C5  UNL     1     -33.950   4.401   4.079  1.00 20.00     0.023 C 
ENDBRANCH   1   3
BRANCH   1   7
HETATM    7  C7  UNL     1     -32.948   7.751   2.421  1.00 20.00     0.246 C 
BRANCH   7   8
HETATM    8  O9  UNL     1     -32.162   8.041   1.284  1.00 20.00    -0.389 OA
HETATM    9  C6  UNL     1     -31.844   9.427   1.198  1.00 20.00     0.202 C 
ENDBRANCH   7   8
ENDBRANCH   1   7
TORSDOF 3
