REMARK  2 active torsions:
REMARK  status: ('A' for Active; 'I' for Inactive)
REMARK    1  A    between atoms: C6_6  and  C8_8 
REMARK    2  A    between atoms: C7_7  and  C9_9 
ROOT
HETATM    1  C4  UNL     1     -34.483   6.913   3.133  1.00 20.00     0.034 C 
HETATM    2  C5  UNL     1     -34.149   8.059   4.064  1.00 20.00     0.168 C 
HETATM    3  C7  UNL     1     -33.155   6.685   2.441  1.00 20.00     0.031 C 
HETATM    4  C8  UNL     1     -32.623   8.109   2.289  1.00 20.00     0.130 C 
HETATM    5  O10 UNL     1     -33.132   8.841   3.420  1.00 20.00    -0.385 OA
ENDROOT
BRANCH   4   6
HETATM    6  C6  UNL     1     -33.091   8.824   1.026  1.00 20.00     0.015 C 
HETATM    7  C2  UNL     1     -32.265   8.572  -0.262  1.00 20.00     0.007 C 
HETATM    8  C1  UNL     1     -32.516  10.050  -0.624  1.00 20.00     0.001 C 
HETATM    9  C3  UNL     1     -32.693  10.316   0.885  1.00 20.00     0.007 C 
ENDBRANCH   4   6
BRANCH   3  10
HETATM   10  C9  UNL     1     -33.251   5.847   1.178  1.00 20.00     0.121 C 
HETATM   11 CL11 UNL     1     -31.663   5.170   0.764  1.00 20.00    -0.130 Cl
ENDBRANCH   3  10
TORSDOF 2
