REMARK  2 active torsions:
REMARK  status: ('A' for Active; 'I' for Inactive)
REMARK    1  A    between atoms: C1_1  and  C5_5 
REMARK    2  A    between atoms: C1_1  and  C8_8 
ROOT
HETATM    1  C2  UNL     1     -33.567   6.092   2.336  1.00 20.00     0.017 C 
HETATM    2  C3  UNL     1     -33.668   8.204   3.562  1.00 20.00     0.017 C 
HETATM    3  C4  UNL     1     -35.667   6.522   3.859  1.00 20.00     0.010 A 
HETATM    4  C5  UNL     1     -33.533   7.618   2.145  1.00 20.00     0.057 C 
HETATM    5  C6  UNL     1     -34.333   5.870   3.607  1.00 20.00    -0.009 A 
HETATM    6  C7  UNL     1     -34.394   7.158   4.354  1.00 20.00    -0.009 A 
ENDROOT
BRANCH   4   7
HETATM    7  C1  UNL     1     -32.275   8.068   1.473  1.00 20.00     0.144 C 
HETATM    8  O9  UNL     1     -31.232   7.431   1.605  1.00 20.00    -0.296 OA
BRANCH   7   9
HETATM    9  C8  UNL     1     -32.388   9.329   0.647  1.00 20.00     0.193 C 
HETATM   10 CL10 UNL     1     -32.806   8.945  -1.029  1.00 20.00    -0.123 Cl
ENDBRANCH   7   9
ENDBRANCH   4   7
TORSDOF 2
