REMARK  6 active torsions:
REMARK  status: ('A' for Active; 'I' for Inactive)
REMARK    1  A    between atoms: C5_5  and  C10_10 
REMARK    2  A    between atoms: C6_6  and  C7_7 
REMARK    3  A    between atoms: C6_6  and  C10_10 
REMARK    4  A    between atoms: C7_7  and  C11_11 
REMARK    5  A    between atoms: C8_8  and  C9_9 
REMARK    6  A    between atoms: C8_8  and  C11_11 
ROOT
HETATM    1  C7  UNL     1     -31.964   8.028   2.235  1.00 20.00     0.020 C 
ENDROOT
BRANCH   1   2
HETATM    2  C6  UNL     1     -31.271   8.821   1.115  1.00 20.00     0.005 C 
BRANCH   2   3
HETATM    3  C10 UNL     1     -32.264   9.572   0.203  1.00 20.00    -0.019 C 
HETATM    4  C4  UNL     1     -31.552  10.338  -0.915  1.00 20.00     0.010 C 
BRANCH   3   5
HETATM    5  C5  UNL     1     -33.194  10.497   1.016  1.00 20.00    -0.000 C 
HETATM    6  C1  UNL     1     -32.499  11.620   1.773  1.00 20.00     0.005 C 
ENDBRANCH   3   5
ENDBRANCH   2   3
ENDBRANCH   1   2
BRANCH   1   7
HETATM    7  C11 UNL     1     -32.953   6.972   1.714  1.00 20.00     0.082 C 
HETATM    8 CL12 UNL     1     -32.126   5.844   0.582  1.00 20.00    -0.125 Cl
BRANCH   7   9
HETATM    9  C8  UNL     1     -33.584   6.126   2.834  1.00 20.00     0.024 C 
BRANCH   9  10
HETATM   10  C9  UNL     1     -34.790   6.758   3.559  1.00 20.00    -0.021 C 
HETATM   11  C2  UNL     1     -34.437   8.082   4.238  1.00 20.00     0.009 C 
HETATM   12  C3  UNL     1     -35.339   5.776   4.598  1.00 20.00     0.009 C 
ENDBRANCH   9  10
ENDBRANCH   7   9
ENDBRANCH   1   7
TORSDOF 6
