REMARK  4 active torsions:
REMARK  status: ('A' for Active; 'I' for Inactive)
REMARK    1  A    between atoms: C1_1  and  C4_4 
REMARK    2  A    between atoms: C1_1  and  C9_9 
REMARK    3  A    between atoms: C9_9  and  C10_10 
REMARK    4  A    between atoms: C10_10  and  C11_11 
ROOT
HETATM    1  C1  UNL     1     -33.218   6.073   2.300  1.00 20.00     0.135 C 
HETATM    2  O12 UNL     1     -32.816   5.201   1.540  1.00 20.00    -0.297 OA
ENDROOT
BRANCH   1   3
HETATM    3  C4  UNL     1     -34.035   5.702   3.492  1.00 20.00     0.017 A 
HETATM    4  C2  UNL     1     -35.425   6.290   3.570  1.00 20.00     0.018 A 
HETATM    5  C3  UNL     1     -34.346   6.812   4.470  1.00 20.00     0.018 A 
HETATM    6  C5  UNL     1     -33.832   4.321   4.049  1.00 20.00     0.023 C 
ENDBRANCH   1   3
BRANCH   1   7
HETATM    7  C9  UNL     1     -32.949   7.555   2.134  1.00 20.00     0.080 C 
BRANCH   7   8
HETATM    8  C10 UNL     1     -32.076   7.845   0.910  1.00 20.00     0.015 C 
BRANCH   8   9
HETATM    9  C11 UNL     1     -31.690   9.333   0.697  1.00 20.00    -0.051 C 
HETATM   10  C6  UNL     1     -32.984  10.137   0.464  1.00 20.00     0.014 C 
HETATM   11  C7  UNL     1     -30.784   9.500  -0.534  1.00 20.00     0.014 C 
HETATM   12  C8  UNL     1     -30.976   9.905   1.933  1.00 20.00     0.014 C 
ENDBRANCH   8   9
ENDBRANCH   7   8
ENDBRANCH   1   7
TORSDOF 4
