REMARK  3 active torsions:
REMARK  status: ('A' for Active; 'I' for Inactive)
REMARK    1  A    between atoms: C1_1  and  C7_7 
REMARK    2  A    between atoms: C2_2  and  C3_3 
REMARK    3  A    between atoms: C3_3  and  C10_10 
ROOT
HETATM    1  C1  UNL     1     -32.805   7.997   2.135  1.00 20.00    -0.012 C 
HETATM    2  C3  UNL     1     -33.237   6.739   2.338  1.00 20.00    -0.020 C 
ENDROOT
BRANCH   2   3
HETATM    3  C2  UNL     1     -34.003   6.559   3.606  1.00 20.00     0.265 C 
HETATM    4  O11 UNL     1     -35.164   6.172   3.654  1.00 20.00    -0.302 OA
ENDBRANCH   2   3
BRANCH   2   5
HETATM    5  C10 UNL     1     -33.010   5.556   1.416  1.00 20.00     0.013 C 
HETATM    6  C8  UNL     1     -34.088   5.450   0.333  1.00 20.00     0.015 C 
HETATM    7  C9  UNL     1     -32.869   4.240   2.186  1.00 20.00     0.015 C 
ENDBRANCH   2   5
BRANCH   1   8
HETATM    8  C7  UNL     1     -32.027   8.386   0.938  1.00 20.00     0.009 C 
HETATM    9  C5  UNL     1     -32.835   9.089  -0.182  1.00 20.00     0.008 C 
HETATM   10  C4  UNL     1     -32.396  10.440   0.415  1.00 20.00     0.001 C 
HETATM   11  C6  UNL     1     -31.215   9.698   1.070  1.00 20.00     0.008 C 
ENDBRANCH   1   8
TORSDOF 3
