REMARK  1 active torsions:
REMARK  status: ('A' for Active; 'I' for Inactive)
REMARK    1  A    between atoms: C3_3  and  C8_8 
ROOT
HETATM    1  C1  UNL     1     -31.796   7.447   0.608  1.00 20.00     0.111 C 
HETATM    2  C2  UNL     1     -32.381   8.739   1.171  1.00 20.00     0.227 C 
HETATM    3  C3  UNL     1     -33.121   7.262   2.889  1.00 20.00     0.205 C 
HETATM    4  C4  UNL     1     -32.815   9.687   0.058  1.00 20.00     0.043 C 
HETATM    5  C5  UNL     1     -32.541   7.810   4.197  1.00 20.00     0.062 C 
HETATM    6  N9  UNL     1     -33.535   8.376   2.014  1.00 20.00     0.108 N 
HETATM    7  S10 UNL     1     -31.837   6.306   2.006  1.00 20.00    -0.126 SA
HETATM    8  H27 UNL     1     -33.846   9.178   2.559  1.00 20.00     0.318 HD
ENDROOT
BRANCH   3   9
HETATM    9  C8  UNL     1     -34.319   6.354   3.180  1.00 20.00     0.026 C 
HETATM   10  C6  UNL     1     -33.889   5.158   4.025  1.00 20.00     0.013 C 
HETATM   11  C7  UNL     1     -35.427   7.137   3.879  1.00 20.00     0.013 C 
ENDBRANCH   3   9
TORSDOF 1
