REMARK  4 active torsions:
REMARK  status: ('A' for Active; 'I' for Inactive)
REMARK    1  A    between atoms: C5_5  and  C6_6 
REMARK    2  A    between atoms: C5_5  and  C8_8 
REMARK    3  A    between atoms: C6_6  and  C7_7 
REMARK    4  A    between atoms: C6_6  and  N9_9 
ROOT
HETATM    1  C6  UNL     1     -33.024   6.971   2.729  1.00 20.00     0.285 C 
ENDROOT
BRANCH   1   2
HETATM    2  C5  UNL     1     -33.358   8.026   1.651  1.00 20.00     0.049 C 
BRANCH   2   3
HETATM    3  C8  UNL     1     -32.267   9.076   1.285  1.00 20.00    -0.049 C 
HETATM    4  C1  UNL     1     -32.800  10.510   1.444  1.00 20.00     0.014 C 
HETATM    5  C2  UNL     1     -31.088   8.887   2.264  1.00 20.00     0.014 C 
HETATM    6  C3  UNL     1     -31.729   8.895  -0.143  1.00 20.00     0.014 C 
ENDBRANCH   2   3
ENDBRANCH   1   2
BRANCH   1   7
HETATM    7  C7  UNL     1     -34.297   6.285   3.225  1.00 20.00     0.386 C 
HETATM    8  F10 UNL     1     -33.996   5.121   3.852  1.00 20.00    -0.212 F 
HETATM    9  F11 UNL     1     -34.916   7.073   4.140  1.00 20.00    -0.212 F 
ENDBRANCH   1   7
BRANCH   1  10
HETATM   10  N9  UNL     1     -32.114   5.948   2.218  1.00 20.00     0.089 N 
HETATM   11  C4  UNL     1     -32.696   5.264   1.073  1.00 20.00     0.307 C 
HETATM   12  H28 UNL     1     -31.927   5.273   2.957  1.00 20.00     0.316 HD
ENDBRANCH   1  10
TORSDOF 4
