REMARK  4 active torsions:
REMARK  status: ('A' for Active; 'I' for Inactive)
REMARK    1  A    between atoms: C5_5  and  C8_8 
REMARK    2  A    between atoms: C6_6  and  C8_8 
REMARK    3  A    between atoms: C7_7  and  C8_8 
REMARK    4  A    between atoms: C8_8  and  N9_9 
ROOT
HETATM    1  C8  UNL     1     -33.167   7.200   3.028  1.00 20.00     0.217 C 
ENDROOT
BRANCH   1   2
HETATM    2  C5  UNL     1     -34.096   8.177   2.249  1.00 20.00     0.043 C 
HETATM    3  C1  UNL     1     -33.401   9.179   1.332  1.00 20.00     0.008 C 
ENDBRANCH   1   2
BRANCH   1   4
HETATM    4  C6  UNL     1     -33.961   6.204   3.946  1.00 20.00     0.021 C 
HETATM    5  C2  UNL     1     -33.709   4.722   3.635  1.00 20.00     0.012 C 
HETATM    6  C3  UNL     1     -35.482   6.444   3.944  1.00 20.00     0.012 C 
ENDBRANCH   1   4
BRANCH   1   7
HETATM    7  C7  UNL     1     -32.261   6.476   2.012  1.00 20.00     0.391 C 
HETATM    8  F10 UNL     1     -33.019   5.792   1.113  1.00 20.00    -0.212 F 
HETATM    9  F11 UNL     1     -31.541   7.370   1.289  1.00 20.00    -0.212 F 
ENDBRANCH   1   7
BRANCH   1  10
HETATM   10  N9  UNL     1     -32.261   7.994   3.881  1.00 20.00     0.094 N 
HETATM   11  C4  UNL     1     -33.026   8.790   4.821  1.00 20.00     0.307 C 
HETATM   12  H28 UNL     1     -31.710   8.597   3.281  1.00 20.00     0.316 HD
ENDBRANCH   1  10
TORSDOF 4
