REMARK  1 active torsions:
REMARK  status: ('A' for Active; 'I' for Inactive)
REMARK    1  A    between atoms: C4_4  and  C7_7 
ROOT
HETATM    1  C1  UNL     1     -35.224   4.945   4.360  1.00 20.00     0.040 C 
HETATM    2  C2  UNL     1     -35.310   6.413   4.774  1.00 20.00     0.272 C 
HETATM    3  C3  UNL     1     -33.816   4.508   3.977  1.00 20.00     0.078 C 
HETATM    4  C4  UNL     1     -33.516   7.185   3.263  1.00 20.00     0.201 C 
HETATM    5  C5  UNL     1     -32.511   7.544   4.368  1.00 20.00     0.061 C 
HETATM    6  N8  UNL     1     -34.910   7.329   3.707  1.00 20.00     0.102 N 
HETATM    7  S9  UNL     1     -33.160   5.504   2.607  1.00 20.00    -0.128 SA
HETATM    8  H24 UNL     1     -35.535   7.198   2.911  1.00 20.00     0.317 HD
ENDROOT
BRANCH   4   9
HETATM    9  C7  UNL     1     -33.317   8.163   2.091  1.00 20.00     0.048 C 
HETATM   10  C6  UNL     1     -31.935   8.076   1.540  1.00 20.00     0.009 C 
ENDBRANCH   4   9
TORSDOF 1
