REMARK  2 active torsions:
REMARK  status: ('A' for Active; 'I' for Inactive)
REMARK    1  A    between atoms: C3_3  and  C7_7 
REMARK    2  A    between atoms: C3_3  and  C8_8 
ROOT
HETATM    1  C1  UNL     1     -31.197   8.249   1.705  1.00 20.00     0.286 C 
HETATM    2  C2  UNL     1     -32.394   9.048   1.195  1.00 20.00     0.074 C 
HETATM    3  C3  UNL     1     -32.840   6.546   1.941  1.00 20.00     0.205 C 
HETATM    4  C4  UNL     1     -32.065   9.883  -0.030  1.00 20.00     0.023 C 
HETATM    5  N9  UNL     1     -31.714   7.218   2.608  1.00 20.00     0.104 N 
HETATM    6  S10 UNL     1     -33.624   7.768   0.825  1.00 20.00    -0.122 SA
HETATM    7  H27 UNL     1     -30.980   6.554   2.848  1.00 20.00     0.318 HD
ENDROOT
BRANCH   3   8
HETATM    8  C7  UNL     1     -32.366   5.342   1.120  1.00 20.00     0.048 C 
HETATM    9  C5  UNL     1     -33.503   4.672   0.425  1.00 20.00     0.009 C 
ENDBRANCH   3   8
BRANCH   3  10
HETATM   10  C8  UNL     1     -33.847   6.108   3.004  1.00 20.00     0.048 C 
HETATM   11  C6  UNL     1     -34.325   7.264   3.819  1.00 20.00     0.009 C 
ENDBRANCH   3  10
TORSDOF 2
