REMARK  2 active torsions:
REMARK  status: ('A' for Active; 'I' for Inactive)
REMARK    1  A    between atoms: C5_5  and  C8_8 
REMARK    2  A    between atoms: C5_5  and  O9_9 
ROOT
HETATM    1  C1  UNL     1     -31.883   5.603   1.387  1.00 20.00     0.004 C 
HETATM    2  C2  UNL     1     -31.722   7.035   0.874  1.00 20.00     0.012 C 
HETATM    3  C3  UNL     1     -33.088   5.607   2.335  1.00 20.00     0.044 C 
HETATM    4  C4  UNL     1     -32.524   7.918   1.852  1.00 20.00    -0.011 C 
HETATM    5  C5  UNL     1     -33.728   6.993   2.179  1.00 20.00     0.123 C 
HETATM    6  C6  UNL     1     -32.930   9.236   1.176  1.00 20.00     0.018 C 
HETATM    7  C7  UNL     1     -31.659   8.250   3.084  1.00 20.00     0.018 C 
ENDROOT
BRANCH   5   8
HETATM    8  C8  UNL     1     -34.558   7.392   3.395  1.00 20.00     0.388 C 
HETATM    9  F10 UNL     1     -33.765   7.381   4.486  1.00 20.00    -0.211 F 
HETATM   10  F11 UNL     1     -35.523   6.468   3.585  1.00 20.00    -0.211 F 
ENDBRANCH   5   8
BRANCH   5  11
HETATM   11  O9  UNL     1     -34.609   6.944   1.049  1.00 20.00    -0.383 OA
HETATM   12  H25 UNL     1     -34.057   6.715   0.289  1.00 20.00     0.210 HD
ENDBRANCH   5  11
TORSDOF 2
