REMARK  3 active torsions:
REMARK  status: ('A' for Active; 'I' for Inactive)
REMARK    1  A    between atoms: C3_3  and  N7_7 
REMARK    2  A    between atoms: C4_4  and  C5_5 
REMARK    3  A    between atoms: C4_4  and  N7_7 
ROOT
HETATM    1  C1  UNL     1     -32.076   8.445   0.981  1.00 20.00     0.089 C 
HETATM    2  C3  UNL     1     -31.755   7.213   1.699  1.00 20.00     0.395 C 
HETATM    3  N6  UNL     1     -32.327   9.424   0.410  1.00 20.00    -0.195 NA
ENDROOT
BRANCH   2   4
HETATM    4  N7  UNL     1     -32.948   6.654   2.333  1.00 20.00     0.099 N 
HETATM    5  C2  UNL     1     -32.752   5.236   2.632  1.00 20.00     0.311 C 
BRANCH   4   6
HETATM    6  C4  UNL     1     -33.273   7.392   3.553  1.00 20.00     0.304 C 
BRANCH   6   7
HETATM    7  C5  UNL     1     -34.738   7.258   3.910  1.00 20.00     0.252 C 
HETATM    8  F8  UNL     1     -35.030   5.943   4.095  1.00 20.00    -0.254 F 
ENDBRANCH   6   7
ENDBRANCH   4   6
ENDBRANCH   2   4
TORSDOF 3
