REMARK  0 active torsions:
REMARK  status: ('A' for Active; 'I' for Inactive)
ROOT
HETATM    1  C1  UNL     1     -32.511   8.352   1.017  1.00 20.00     0.064 C 
HETATM    2  C2  UNL     1     -32.418   7.631   3.399  1.00 20.00     0.020 C 
HETATM    3  C3  UNL     1     -33.721   7.481   4.182  1.00 20.00     0.010 C 
HETATM    4  C4  UNL     1     -34.220   6.812   1.953  1.00 20.00     0.027 C 
HETATM    5  C5  UNL     1     -32.745   7.242   1.950  1.00 20.00     0.093 C 
HETATM    6  C6  UNL     1     -34.527   6.429   3.409  1.00 20.00    -0.046 C 
HETATM    7  C7  UNL     1     -34.044   5.005   3.727  1.00 20.00     0.015 C 
HETATM    8  C8  UNL     1     -36.023   6.533   3.716  1.00 20.00     0.015 C 
HETATM    9  N9  UNL     1     -32.326   9.228   0.279  1.00 20.00    -0.197 NA
ENDROOT
TORSDOF 0
