REMARK  1 active torsions:
REMARK  status: ('A' for Active; 'I' for Inactive)
REMARK    1  A    between atoms: C7_7  and  N8_8 
ROOT
HETATM    1  C1  UNL     1     -31.820   6.055   0.901  1.00 20.00     0.048 C 
HETATM    2  C2  UNL     1     -33.142   5.796   1.613  1.00 20.00     0.274 C 
HETATM    3  C3  UNL     1     -32.604   7.993   2.138  1.00 20.00     0.288 C 
HETATM    4  C4  UNL     1     -31.487   7.507   1.225  1.00 20.00     0.087 C 
HETATM    5  N8  UNL     1     -33.099   6.745   2.726  1.00 20.00     0.093 N 
HETATM    6 BR9  UNL     1     -31.389   8.590  -0.382  1.00 20.00    -0.089 Br
ENDROOT
BRANCH   5   7
HETATM    7  C7  UNL     1     -34.396   6.909   3.366  1.00 20.00     0.215 C 
HETATM    8  C5  UNL     1     -34.271   7.925   4.492  1.00 20.00     0.042 C 
HETATM    9  C6  UNL     1     -34.866   5.555   3.878  1.00 20.00     0.042 C 
ENDBRANCH   5   7
TORSDOF 1
