REMARK  0 active torsions:
REMARK  status: ('A' for Active; 'I' for Inactive)
ROOT
HETATM    1  C1  UNL     1     -33.787   4.376   4.078  1.00 20.00     0.088 C 
HETATM    2  C2  UNL     1     -33.386   6.344   2.748  1.00 20.00    -0.069 C 
HETATM    3  C3  UNL     1     -34.059   5.722   3.723  1.00 20.00     0.096 C 
HETATM    4  C4  UNL     1     -32.292   5.713   1.934  1.00 20.00     0.036 C 
HETATM    5  C5  UNL     1     -33.603   7.774   2.337  1.00 20.00     0.043 C 
HETATM    6  C6  UNL     1     -32.000   6.763   0.863  1.00 20.00     0.013 C 
HETATM    7  C7  UNL     1     -32.340   8.112   1.524  1.00 20.00    -0.044 C 
HETATM    8  C8  UNL     1     -31.196   8.585   2.440  1.00 20.00     0.015 C 
HETATM    9  C9  UNL     1     -32.619   9.192   0.476  1.00 20.00     0.015 C 
HETATM   10  N10 UNL     1     -33.569   3.275   4.372  1.00 20.00    -0.192 NA
ENDROOT
TORSDOF 0
