REMARK  0 active torsions:
REMARK  status: ('A' for Active; 'I' for Inactive)
ROOT
HETATM    1  C1  UNL     1     -33.477   6.253   2.261  1.00 20.00     0.021 C 
HETATM    2  C2  UNL     1     -32.228   6.861   1.626  1.00 20.00     0.010 C 
HETATM    3  C3  UNL     1     -33.423   8.508   3.005  1.00 20.00     0.029 C 
HETATM    4  C4  UNL     1     -33.678   7.094   3.510  1.00 20.00     0.083 C 
HETATM    5  C5  UNL     1     -32.222   8.354   2.043  1.00 20.00    -0.046 C 
HETATM    6  C6  UNL     1     -32.384   9.270   0.825  1.00 20.00     0.015 C 
HETATM    7  C7  UNL     1     -30.908   8.701   2.760  1.00 20.00     0.015 C 
HETATM    8 CL8  UNL     1     -35.300   6.906   4.192  1.00 20.00    -0.125 Cl
ENDROOT
TORSDOF 0
