REMARK  1 active torsions:
REMARK  status: ('A' for Active; 'I' for Inactive)
REMARK    1  A    between atoms: C4_4  and  S8_8 
ROOT
HETATM    1  C1  UNL     1     -33.502   7.652   4.501  1.00 20.00     0.015 C 
HETATM    2  C2  UNL     1     -32.332   7.045   3.739  1.00 20.00     0.010 C 
HETATM    3  C3  UNL     1     -34.335   7.069   2.311  1.00 20.00     0.023 C 
HETATM    4  C4  UNL     1     -34.737   7.112   3.789  1.00 20.00     0.045 C 
HETATM    5  C5  UNL     1     -32.785   7.036   2.265  1.00 20.00    -0.047 C 
HETATM    6  C6  UNL     1     -32.249   8.279   1.535  1.00 20.00     0.015 C 
HETATM    7  C7  UNL     1     -32.275   5.782   1.546  1.00 20.00     0.015 C 
ENDROOT
BRANCH   4   8
HETATM    8  S8  UNL     1     -35.208   5.456   4.405  1.00 20.00    -0.177 SA
HETATM    9  H22 UNL     1     -36.267   5.314   3.598  1.00 20.00     0.102 HD
ENDBRANCH   4   8
TORSDOF 1
