REMARK  3 active torsions:
REMARK  status: ('A' for Active; 'I' for Inactive)
REMARK    1  A    between atoms: C4_4  and  C5_5 
REMARK    2  A    between atoms: C6_6  and  C7_7 
REMARK    3  A    between atoms: C6_6  and  N8_8 
ROOT
HETATM    1  C1  UNL     1     -32.417   6.911   0.877  1.00 20.00     0.035 C 
HETATM    2  C2  UNL     1     -33.622   6.397   1.638  1.00 20.00     0.235 C 
HETATM    3  C3  UNL     1     -32.383   8.018   2.997  1.00 20.00     0.240 C 
HETATM    4  C4  UNL     1     -32.134   8.267   1.512  1.00 20.00     0.027 C 
HETATM    5  N8  UNL     1     -33.384   6.876   3.053  1.00 20.00    -0.068 N 
HETATM    6  H24 UNL     1     -32.926   6.101   3.556  1.00 20.00     0.280 HD
ENDROOT
BRANCH   5   7
HETATM    7  C6  UNL     1     -34.640   7.195   3.799  1.00 20.00     0.266 C 
BRANCH   7   8
HETATM    8  C7  UNL     1     -35.490   5.949   3.891  1.00 20.00     0.249 C 
HETATM    9  F9  UNL     1     -34.782   4.971   4.516  1.00 20.00    -0.254 F 
ENDBRANCH   7   8
ENDBRANCH   5   7
BRANCH   4  10
HETATM   10  C5  UNL     1     -33.035   9.370   0.957  1.00 20.00     0.121 C 
HETATM   11 CL10 UNL     1     -32.416   9.947  -0.603  1.00 20.00    -0.130 Cl
ENDBRANCH   4  10
TORSDOF 3
