REMARK  1 active torsions:
REMARK  status: ('A' for Active; 'I' for Inactive)
REMARK    1  A    between atoms: C5_5  and  O9_9 
ROOT
HETATM    1  C1  UNL     1     -32.484   7.690   3.635  1.00 20.00     0.012 C 
HETATM    2  C2  UNL     1     -33.821   7.506   4.347  1.00 20.00     0.038 C 
HETATM    3  C3  UNL     1     -34.166   6.742   2.102  1.00 20.00     0.046 C 
HETATM    4  C4  UNL     1     -32.782   7.444   2.138  1.00 20.00    -0.045 C 
HETATM    5  C5  UNL     1     -34.484   6.382   3.557  1.00 20.00     0.055 C 
HETATM    6  C6  UNL     1     -31.696   6.560   1.512  1.00 20.00     0.015 C 
HETATM    7  C7  UNL     1     -32.842   8.775   1.374  1.00 20.00     0.015 C 
HETATM    8  C8  UNL     1     -35.976   6.255   3.827  1.00 20.00     0.045 C 
ENDROOT
BRANCH   5   9
HETATM    9  O9  UNL     1     -33.856   5.139   3.867  1.00 20.00    -0.390 OA
HETATM   10  H25 UNL     1     -34.312   4.463   3.343  1.00 20.00     0.210 HD
ENDBRANCH   5   9
TORSDOF 1
