REMARK  2 active torsions:
REMARK  status: ('A' for Active; 'I' for Inactive)
REMARK    1  A    between atoms: C3_3  and  C8_8 
REMARK    2  A    between atoms: C3_3  and  C9_9 
ROOT
HETATM    1  C1  UNL     1     -33.004   9.999  -0.050  1.00 20.00     0.012 C 
HETATM    2  C2  UNL     1     -32.446   9.178   0.624  1.00 20.00    -0.110 C 
HETATM    3  C9  UNL     1     -31.760   8.171   1.442  1.00 20.00     0.172 C 
ENDROOT
BRANCH   3   4
HETATM    4  C3  UNL     1     -32.350   8.052   2.833  1.00 20.00     0.151 C 
HETATM    5  O10 UNL     1     -31.974   8.737   3.783  1.00 20.00    -0.296 OA
BRANCH   4   6
HETATM    6  C8  UNL     1     -33.436   7.039   3.001  1.00 20.00     0.117 C 
HETATM    7  C6  UNL     1     -34.389   7.464   4.115  1.00 20.00     0.023 C 
HETATM    8  C4  UNL     1     -35.522   6.466   4.339  1.00 20.00     0.002 C 
HETATM    9  C5  UNL     1     -35.021   5.076   4.723  1.00 20.00     0.010 C 
HETATM   10  C7  UNL     1     -34.120   4.452   3.665  1.00 20.00     0.075 C 
HETATM   11  S11 UNL     1     -32.632   5.451   3.368  1.00 20.00    -0.157 SA
ENDBRANCH   4   6
ENDBRANCH   3   4
TORSDOF 2
