REMARK  1 active torsions:
REMARK  status: ('A' for Active; 'I' for Inactive)
REMARK    1  A    between atoms: C4_4  and  C8_8 
ROOT
HETATM    1  C1  UNL     1     -32.087   5.782   1.400  1.00 20.00     0.006 C 
HETATM    2  C2  UNL     1     -31.519   6.857   0.477  1.00 20.00     0.009 C 
HETATM    3  C3  UNL     1     -32.710   7.855   2.381  1.00 20.00     0.014 C 
HETATM    4  C4  UNL     1     -33.273   6.471   2.063  1.00 20.00     0.000 C 
HETATM    5  C5  UNL     1     -31.829   8.211   1.161  1.00 20.00    -0.047 C 
HETATM    6  C6  UNL     1     -30.540   8.909   1.613  1.00 20.00     0.015 C 
HETATM    7  C7  UNL     1     -32.587   9.134   0.197  1.00 20.00     0.015 C 
ENDROOT
BRANCH   4   8
HETATM    8  C8  UNL     1     -33.780   5.735   3.292  1.00 20.00     0.119 C 
HETATM    9 CL9  UNL     1     -35.151   6.603   4.011  1.00 20.00    -0.130 Cl
ENDBRANCH   4   8
TORSDOF 1
