REMARK  1 active torsions:
REMARK  status: ('A' for Active; 'I' for Inactive)
REMARK    1  A    between atoms: C5_5  and  O11_11 
ROOT
HETATM    1  C1  UNL     1     -33.681   6.906   3.035  1.00 20.00     0.098 C 
HETATM    2  C2  UNL     1     -31.509   7.953   2.426  1.00 20.00     0.054 C 
HETATM    3  C3  UNL     1     -31.616   9.366   1.859  1.00 20.00     0.013 C 
HETATM    4  C4  UNL     1     -33.424   8.140   0.889  1.00 20.00     0.062 C 
HETATM    5  C5  UNL     1     -32.762   7.213   1.929  1.00 20.00     0.148 C 
HETATM    6  C6  UNL     1     -32.358   9.192   0.528  1.00 20.00    -0.044 C 
HETATM    7  C7  UNL     1     -32.997  10.506   0.071  1.00 20.00     0.015 C 
HETATM    8  C8  UNL     1     -31.420   8.681  -0.578  1.00 20.00     0.015 C 
HETATM    9  N10 UNL     1     -34.406   6.664   3.908  1.00 20.00    -0.194 NA
ENDROOT
BRANCH   5  10
HETATM   10  O11 UNL     1     -32.353   5.998   1.308  1.00 20.00    -0.370 OA
HETATM   11  C9  UNL     1     -33.463   5.279   0.788  1.00 20.00     0.204 C 
ENDBRANCH   5  10
TORSDOF 1
