REMARK  1 active torsions:
REMARK  status: ('A' for Active; 'I' for Inactive)
REMARK    1  A    between atoms: C3_3  and  C8_8 
ROOT
HETATM    1  C1  UNL     1     -35.073   6.020   4.093  1.00 20.00     0.021 C 
HETATM    2  C2  UNL     1     -34.195   6.142   3.283  1.00 20.00    -0.037 C 
HETATM    3  C3  UNL     1     -33.140   6.287   2.309  1.00 20.00     0.235 C 
HETATM    4  O10 UNL     1     -32.721   5.302   1.714  1.00 20.00    -0.280 OA
ENDROOT
BRANCH   3   5
HETATM    5  C8  UNL     1     -32.621   7.680   2.092  1.00 20.00     0.129 C 
HETATM    6  C6  UNL     1     -33.764   8.583   1.612  1.00 20.00     0.047 C 
HETATM    7  C4  UNL     1     -33.246   9.877   0.991  1.00 20.00     0.006 C 
HETATM    8  C5  UNL     1     -32.184   9.571  -0.058  1.00 20.00     0.026 C 
HETATM    9  C7  UNL     1     -31.100   8.670   0.516  1.00 20.00     0.169 C 
HETATM   10  O11 UNL     1     -31.653   7.473   1.059  1.00 20.00    -0.372 OA
HETATM   11  C9  UNL     1     -31.971   8.165   3.387  1.00 20.00     0.055 C 
ENDBRANCH   3   5
TORSDOF 1
