REMARK  2 active torsions:
REMARK  status: ('A' for Active; 'I' for Inactive)
REMARK    1  A    between atoms: C6_6  and  C7_7 
REMARK    2  A    between atoms: C6_6  and  N9_9 
ROOT
HETATM    1  C1  UNL     1     -32.563   9.380   1.227  1.00 20.00     0.095 C 
HETATM    2  C2  UNL     1     -32.659   5.902   0.714  1.00 20.00     0.033 C 
HETATM    3  C3  UNL     1     -31.739   7.113   0.653  1.00 20.00     0.053 C 
HETATM    4  C4  UNL     1     -33.221   5.952   2.119  1.00 20.00     0.274 C 
HETATM    5  C5  UNL     1     -32.233   8.053   1.762  1.00 20.00     0.328 C 
HETATM    6  N8  UNL     1     -32.824  10.429   0.804  1.00 20.00    -0.195 NA
HETATM    7  N9  UNL     1     -33.425   7.388   2.310  1.00 20.00     0.108 N 
ENDROOT
BRANCH   7   8
HETATM    8  C6  UNL     1     -33.678   7.723   3.705  1.00 20.00     0.305 C 
BRANCH   8   9
HETATM    9  C7  UNL     1     -34.933   7.050   4.220  1.00 20.00     0.252 C 
HETATM   10  F10 UNL     1     -34.791   5.702   4.103  1.00 20.00    -0.254 F 
ENDBRANCH   8   9
ENDBRANCH   7   8
TORSDOF 2
