REMARK  3 active torsions:
REMARK  status: ('A' for Active; 'I' for Inactive)
REMARK    1  A    between atoms: C5_5  and  C8_8 
REMARK    2  A    between atoms: C6_6  and  C9_9 
REMARK    3  A    between atoms: C8_8  and  C10_10 
ROOT
HETATM    1  C1  UNL     1     -33.077   5.477   2.221  1.00 20.00     0.131 C 
HETATM    2  C2  UNL     1     -31.724   5.598   1.556  1.00 20.00     0.079 C 
HETATM    3  C3  UNL     1     -31.621   6.907   0.786  1.00 20.00     0.012 C 
HETATM    4  C4  UNL     1     -33.375   7.956   2.260  1.00 20.00     0.017 C 
HETATM    5  C5  UNL     1     -33.511   6.664   3.073  1.00 20.00     0.058 C 
HETATM    6  C6  UNL     1     -31.965   8.114   1.668  1.00 20.00    -0.014 C 
HETATM    7  O11 UNL     1     -33.732   4.438   2.140  1.00 20.00    -0.298 OA
ENDROOT
BRANCH   5   8
HETATM    8  C8  UNL     1     -34.938   6.499   3.588  1.00 20.00     0.043 C 
BRANCH   8   9
HETATM    9  C10 UNL     1     -34.996   5.553   4.771  1.00 20.00     0.223 C 
HETATM   10  F12 UNL     1     -34.525   4.334   4.396  1.00 20.00    -0.255 F 
ENDBRANCH   8   9
ENDBRANCH   5   8
BRANCH   6  11
HETATM   11  C9  UNL     1     -31.860   9.411   0.868  1.00 20.00     0.000 C 
HETATM   12  C7  UNL     1     -32.815   9.429  -0.280  1.00 20.00     0.005 C 
ENDBRANCH   6  11
TORSDOF 3
