REMARK  0 active torsions:
REMARK  status: ('A' for Active; 'I' for Inactive)
ROOT
HETATM    1  C1  UNL     1     -32.911   8.444   3.276  1.00 20.00     0.016 C 
HETATM    2  C2  UNL     1     -33.568   7.438   4.218  1.00 20.00     0.010 C 
HETATM    3  C3  UNL     1     -33.986   6.864   1.866  1.00 20.00     0.024 C 
HETATM    4  C4  UNL     1     -32.691   7.645   2.008  1.00 20.00     0.058 C 
HETATM    5  C5  UNL     1     -34.338   6.445   3.312  1.00 20.00    -0.047 C 
HETATM    6  C6  UNL     1     -35.850   6.537   3.549  1.00 20.00     0.015 C 
HETATM    7  C7  UNL     1     -33.874   5.006   3.585  1.00 20.00     0.015 C 
HETATM    8 BR8  UNL     1     -32.381   8.796   0.488  1.00 20.00    -0.091 Br
ENDROOT
TORSDOF 0
