REMARK  3 active torsions:
REMARK  status: ('A' for Active; 'I' for Inactive)
REMARK    1  A    between atoms: C2_2  and  C8_8 
REMARK    2  A    between atoms: C6_6  and  N9_9 
REMARK    3  A    between atoms: C8_8  and  N9_9 
ROOT
HETATM    1  N9  UNL     1     -33.376   8.051   1.752  1.00 20.00     0.094 N 
HETATM    2  H25 UNL     1     -33.806   8.907   2.107  1.00 20.00     0.316 HD
ENDROOT
BRANCH   1   3
HETATM    3  C6  UNL     1     -33.358   7.046   2.800  1.00 20.00     0.246 C 
HETATM    4  C3  UNL     1     -33.199   5.630   2.289  1.00 20.00     0.064 C 
HETATM    5  C4  UNL     1     -33.699   4.826   3.471  1.00 20.00     0.170 C 
HETATM    6  O10 UNL     1     -34.721   5.614   4.101  1.00 20.00    -0.389 OA
HETATM    7  C5  UNL     1     -34.666   6.946   3.564  1.00 20.00     0.203 C 
ENDBRANCH   1   3
BRANCH   1   8
HETATM    8  C8  UNL     1     -32.026   8.356   1.291  1.00 20.00     0.303 C 
BRANCH   8   9
HETATM    9  C2  UNL     1     -32.083   9.382   0.195  1.00 20.00    -0.066 C 
HETATM   10  C1  UNL     1     -31.618   9.119  -1.036  1.00 20.00     0.015 C 
HETATM   11  C7  UNL     1     -32.647  10.729   0.548  1.00 20.00     0.044 C 
ENDBRANCH   8   9
ENDBRANCH   1   8
TORSDOF 3
