REMARK  2 active torsions:
REMARK  status: ('A' for Active; 'I' for Inactive)
REMARK    1  A    between atoms: C4_4  and  C10_10 
REMARK    2  A    between atoms: C10_10  and  C11_11 
ROOT
HETATM    1  C1  UNL     1     -31.163   7.846   1.706  1.00 20.00     0.007 C 
HETATM    2  C2  UNL     1     -31.090   9.227   1.061  1.00 20.00     0.009 C 
HETATM    3  C3  UNL     1     -33.418   8.542   1.438  1.00 20.00     0.015 C 
HETATM    4  C4  UNL     1     -32.493   7.864   2.448  1.00 20.00     0.005 C 
HETATM    5  C5  UNL     1     -32.555   9.654   0.801  1.00 20.00    -0.047 C 
HETATM    6  C6  UNL     1     -32.841   9.767  -0.701  1.00 20.00     0.015 C 
HETATM    7  C7  UNL     1     -32.841  11.008   1.468  1.00 20.00     0.015 C 
ENDROOT
BRANCH   4   8
HETATM    8  C10 UNL     1     -32.967   6.480   2.858  1.00 20.00     0.089 C 
HETATM    9 CL12 UNL     1     -33.008   5.423   1.409  1.00 20.00    -0.124 Cl
BRANCH   8  10
HETATM   10  C11 UNL     1     -34.320   6.496   3.613  1.00 20.00    -0.004 C 
HETATM   11  C8  UNL     1     -34.838   5.107   3.998  1.00 20.00     0.011 C 
HETATM   12  C9  UNL     1     -34.272   7.393   4.856  1.00 20.00     0.011 C 
ENDBRANCH   8  10
ENDBRANCH   4   8
TORSDOF 2
