REMARK  4 active torsions:
REMARK  status: ('A' for Active; 'I' for Inactive)
REMARK    1  A    between atoms: C5_5  and  C6_6 
REMARK    2  A    between atoms: C6_6  and  C9_9 
REMARK    3  A    between atoms: C7_7  and  C8_8 
REMARK    4  A    between atoms: C7_7  and  N10_10 
ROOT
HETATM    1  C1  UNL     1     -32.093   5.275   1.145  1.00 20.00     0.028 C 
HETATM    2  C2  UNL     1     -31.604   6.595   0.557  1.00 20.00     0.008 C 
HETATM    3  C3  UNL     1     -33.478   5.411   1.758  1.00 20.00     0.235 C 
HETATM    4  C4  UNL     1     -33.050   7.842   2.207  1.00 20.00     0.239 C 
HETATM    5  C5  UNL     1     -31.652   7.720   1.598  1.00 20.00     0.012 C 
HETATM    6  N10 UNL     1     -33.463   6.511   2.792  1.00 20.00    -0.069 N 
HETATM    7  H30 UNL     1     -32.759   6.256   3.499  1.00 20.00     0.280 HD
ENDROOT
BRANCH   6   8
HETATM    8  C7  UNL     1     -34.777   6.608   3.518  1.00 20.00     0.266 C 
BRANCH   8   9
HETATM    9  C8  UNL     1     -34.825   5.548   4.595  1.00 20.00     0.249 C 
HETATM   10  F11 UNL     1     -34.743   4.320   4.017  1.00 20.00    -0.254 F 
ENDBRANCH   8   9
ENDBRANCH   6   8
BRANCH   5  11
HETATM   11  C6  UNL     1     -31.225   9.047   0.975  1.00 20.00     0.021 C 
BRANCH  11  12
HETATM   12  C9  UNL     1     -32.057   9.438  -0.238  1.00 20.00     0.115 C 
HETATM   13 CL12 UNL     1     -31.516  10.973  -0.955  1.00 20.00    -0.130 Cl
ENDBRANCH  11  12
ENDBRANCH   5  11
TORSDOF 4
