REMARK  3 active torsions:
REMARK  status: ('A' for Active; 'I' for Inactive)
REMARK    1  A    between atoms: C2_2  and  C8_8 
REMARK    2  A    between atoms: C6_6  and  C8_8 
REMARK    3  A    between atoms: C8_8  and  N9_9 
ROOT
HETATM    1  C8  UNL     1     -33.059   6.523   2.031  1.00 20.00     0.255 C 
ENDROOT
BRANCH   1   2
HETATM    2  C2  UNL     1     -32.084   7.628   1.733  1.00 20.00    -0.001 C 
HETATM    3  C1  UNL     1     -32.424   8.792   1.168  1.00 20.00     0.009 C 
ENDBRANCH   1   2
BRANCH   1   4
HETATM    4  C6  UNL     1     -33.064   6.165   3.512  1.00 20.00     0.084 C 
HETATM    5  C4  UNL     1     -33.982   7.062   4.339  1.00 20.00     0.018 C 
HETATM    6  C3  UNL     1     -35.393   6.502   4.225  1.00 20.00     0.011 C 
HETATM    7  C5  UNL     1     -35.293   5.015   4.510  1.00 20.00     0.074 C 
HETATM    8  S10 UNL     1     -33.736   4.485   3.743  1.00 20.00    -0.162 SA
ENDBRANCH   1   4
BRANCH   1   9
HETATM    9  N9  UNL     1     -32.694   5.382   1.224  1.00 20.00     0.088 N 
HETATM   10  C7  UNL     1     -33.168   5.527  -0.150  1.00 20.00     0.307 C 
HETATM   11  H25 UNL     1     -33.100   4.531   1.622  1.00 20.00     0.316 HD
ENDBRANCH   1   9
TORSDOF 3
