REMARK  2 active torsions:
REMARK  status: ('A' for Active; 'I' for Inactive)
REMARK    1  A    between atoms: C1_1  and  C5_5 
REMARK    2  A    between atoms: C1_1  and  C11_11 
ROOT
HETATM    1  C2  UNL     1     -31.359   7.588   1.853  1.00 20.00     0.013 C 
HETATM    2  C3  UNL     1     -31.171   8.679   0.803  1.00 20.00     0.009 C 
HETATM    3  C4  UNL     1     -33.491   8.108   0.750  1.00 20.00     0.021 C 
HETATM    4  C5  UNL     1     -32.810   7.120   1.706  1.00 20.00     0.056 C 
HETATM    5  C6  UNL     1     -32.554   9.326   0.664  1.00 20.00    -0.047 C 
HETATM    6  C7  UNL     1     -32.700  10.054  -0.675  1.00 20.00     0.015 C 
HETATM    7  C8  UNL     1     -32.825  10.320   1.806  1.00 20.00     0.015 C 
ENDROOT
BRANCH   4   8
HETATM    8  C1  UNL     1     -33.503   7.067   3.035  1.00 20.00     0.134 C 
HETATM    9  O12 UNL     1     -33.167   7.817   3.951  1.00 20.00    -0.297 OA
BRANCH   8  10
HETATM   10  C11 UNL     1     -34.607   6.025   3.195  1.00 20.00     0.047 C 
HETATM   11  C9  UNL     1     -34.015   4.714   3.697  1.00 20.00     0.017 C 
HETATM   12  C10 UNL     1     -35.698   6.525   4.138  1.00 20.00     0.017 C 
ENDBRANCH   8  10
ENDBRANCH   4   8
TORSDOF 2
