REMARK  2 active torsions:
REMARK  status: ('A' for Active; 'I' for Inactive)
REMARK    1  A    between atoms: C5_5  and  C6_6 
REMARK    2  A    between atoms: C5_5  and  N7_7 
ROOT
HETATM    1  C1  UNL     1     -32.937   5.464   1.962  1.00 20.00     0.052 C 
HETATM    2  C2  UNL     1     -31.679   6.024   1.300  1.00 20.00     0.274 C 
HETATM    3  C3  UNL     1     -32.400   7.662   2.786  1.00 20.00     0.292 C 
HETATM    4  C4  UNL     1     -33.512   6.625   2.763  1.00 20.00     0.112 C 
HETATM    5  N7  UNL     1     -31.691   7.480   1.510  1.00 20.00     0.092 N 
HETATM    6 CL9  UNL     1     -34.009   6.146   4.396  1.00 20.00    -0.123 Cl
ENDROOT
BRANCH   5   7
HETATM    7  C5  UNL     1     -32.364   8.171   0.409  1.00 20.00     0.303 C 
BRANCH   7   8
HETATM    8  C6  UNL     1     -32.407   9.667   0.637  1.00 20.00     0.252 C 
HETATM    9  F8  UNL     1     -33.030  10.257  -0.419  1.00 20.00    -0.254 F 
ENDBRANCH   7   8
ENDBRANCH   5   7
TORSDOF 2
