REMARK  0 active torsions:
REMARK  status: ('A' for Active; 'I' for Inactive)
ROOT
HETATM    1  C1  UNL     1     -32.467   8.721   1.096  1.00 20.00     0.064 C 
HETATM    2  C2  UNL     1     -32.553   6.264   1.444  1.00 20.00     0.020 C 
HETATM    3  C3  UNL     1     -33.357   5.526   2.509  1.00 20.00     0.010 C 
HETATM    4  C4  UNL     1     -33.106   7.766   3.308  1.00 20.00     0.027 C 
HETATM    5  C5  UNL     1     -32.224   7.633   2.054  1.00 20.00     0.093 C 
HETATM    6  C6  UNL     1     -34.142   6.630   3.230  1.00 20.00    -0.046 C 
HETATM    7  C7  UNL     1     -35.379   7.059   2.424  1.00 20.00     0.015 C 
HETATM    8  C8  UNL     1     -34.588   6.179   4.623  1.00 20.00     0.015 C 
HETATM    9  N9  UNL     1     -32.658   9.581   0.340  1.00 20.00    -0.197 NA
ENDROOT
TORSDOF 0
