REMARK  4 active torsions:
REMARK  status: ('A' for Active; 'I' for Inactive)
REMARK    1  A    between atoms: C2_2  and  C8_8 
REMARK    2  A    between atoms: C6_6  and  C9_9 
REMARK    3  A    between atoms: C8_8  and  C9_9 
REMARK    4  A    between atoms: C9_9  and  O10_10 
ROOT
HETATM    1  C1  UNL     1     -33.659   3.518   4.319  1.00 20.00    -0.111 C 
HETATM    2  C2  UNL     1     -34.275   4.544   4.215  1.00 20.00    -0.104 C 
HETATM    3  C7  UNL     1     -32.909   2.270   4.445  1.00 20.00     0.112 C 
ENDROOT
BRANCH   2   4
HETATM    4  C8  UNL     1     -35.032   5.800   4.088  1.00 20.00     0.126 C 
BRANCH   4   5
HETATM    5  C9  UNL     1     -34.140   6.939   3.588  1.00 20.00     0.143 C 
BRANCH   5   6
HETATM    6  C6  UNL     1     -33.992   6.896   2.072  1.00 20.00     0.077 C 
HETATM    7  C4  UNL     1     -33.163   8.054   1.521  1.00 20.00     0.018 C 
HETATM    8  C3  UNL     1     -31.696   7.668   1.650  1.00 20.00     0.011 C 
HETATM    9  C5  UNL     1     -31.564   6.270   1.072  1.00 20.00     0.074 C 
HETATM   10  S11 UNL     1     -33.073   5.400   1.579  1.00 20.00    -0.162 SA
ENDBRANCH   5   6
BRANCH   5  11
HETATM   11  O10 UNL     1     -34.738   8.183   3.950  1.00 20.00    -0.394 OA
HETATM   12  H25 UNL     1     -35.601   8.211   3.510  1.00 20.00     0.210 HD
ENDBRANCH   5  11
ENDBRANCH   4   5
ENDBRANCH   2   4
TORSDOF 4
