REMARK  3 active torsions:
REMARK  status: ('A' for Active; 'I' for Inactive)
REMARK    1  A    between atoms: C3_3  and  C7_7 
REMARK    2  A    between atoms: C6_6  and  C8_8 
REMARK    3  A    between atoms: C7_7  and  C8_8 
ROOT
HETATM    1  C1  UNL     1     -32.810   2.981   4.609  1.00 20.00     0.012 C 
HETATM    2  C2  UNL     1     -33.659   3.770   4.295  1.00 20.00    -0.117 C 
HETATM    3  C6  UNL     1     -34.705   4.729   3.910  1.00 20.00     0.098 C 
ENDROOT
BRANCH   3   4
HETATM    4  C8  UNL     1     -34.185   6.171   3.718  1.00 20.00     0.006 C 
HETATM    5  C5  UNL     1     -35.320   7.185   3.936  1.00 20.00     0.011 C 
BRANCH   4   6
HETATM    6  C7  UNL     1     -33.485   6.411   2.359  1.00 20.00     0.087 C 
HETATM    7  C4  UNL     1     -32.602   5.244   1.915  1.00 20.00     0.021 C 
BRANCH   6   8
HETATM    8  C3  UNL     1     -32.528   7.622   2.390  1.00 20.00     0.177 C 
HETATM    9  O9  UNL     1     -31.519   7.554   1.633  1.00 20.00    -0.648 OA
HETATM   10  O10 UNL     1     -32.878   8.548   3.177  1.00 20.00    -0.648 OA
ENDBRANCH   6   8
ENDBRANCH   4   6
ENDBRANCH   3   4
TORSDOF 3
