REMARK  3 active torsions:
REMARK  status: ('A' for Active; 'I' for Inactive)
REMARK    1  A    between atoms: C2_2  and  C9_9 
REMARK    2  A    between atoms: C3_3  and  C6_6 
REMARK    3  A    between atoms: C7_7  and  C9_9 
ROOT
HETATM    1  C4  UNL     1     -33.033   5.433   2.053  1.00 20.00     0.016 C 
HETATM    2  C5  UNL     1     -31.848   6.142   1.368  1.00 20.00     0.007 C 
HETATM    3  C6  UNL     1     -32.973   6.523   3.148  1.00 20.00     0.091 C 
HETATM    4  C7  UNL     1     -32.278   7.441   2.098  1.00 20.00     0.004 C 
ENDROOT
BRANCH   4   5
HETATM    5  C9  UNL     1     -33.132   8.390   1.267  1.00 20.00     0.038 C 
BRANCH   5   6
HETATM    6  C2  UNL     1     -32.306   9.355   0.452  1.00 20.00    -0.093 C 
HETATM    7  C1  UNL     1     -32.436  10.683   0.596  1.00 20.00     0.014 C 
HETATM    8  C8  UNL     1     -31.360   8.766  -0.554  1.00 20.00     0.042 C 
ENDBRANCH   5   6
ENDBRANCH   4   5
BRANCH   3   9
HETATM    9  C3  UNL     1     -34.281   6.985   3.680  1.00 20.00     0.177 C 
HETATM   10  O10 UNL     1     -35.149   6.082   3.838  1.00 20.00    -0.648 OA
HETATM   11  O11 UNL     1     -34.353   8.226   3.905  1.00 20.00    -0.648 OA
ENDBRANCH   3   9
TORSDOF 3
