REMARK  3 active torsions:
REMARK  status: ('A' for Active; 'I' for Inactive)
REMARK    1  A    between atoms: C6_6  and  C7_7 
REMARK    2  A    between atoms: C6_6  and  C8_8 
REMARK    3  A    between atoms: C7_7  and  N9_9 
ROOT
HETATM    1  C1  UNL     1     -32.576   5.310   1.371  1.00 20.00     0.029 C 
HETATM    2  C2  UNL     1     -33.520   5.091   2.549  1.00 20.00     0.023 C 
HETATM    3  C3  UNL     1     -31.659   6.503   1.597  1.00 20.00     0.235 C 
HETATM    4  C4  UNL     1     -33.379   7.553   3.096  1.00 20.00     0.254 C 
HETATM    5  C5  UNL     1     -34.303   6.363   2.865  1.00 20.00     0.108 C 
HETATM    6  N9  UNL     1     -32.489   7.731   1.886  1.00 20.00    -0.070 N 
HETATM    7 CL11 UNL     1     -35.317   6.106   4.314  1.00 20.00    -0.123 Cl
HETATM    8  H27 UNL     1     -33.104   7.880   1.074  1.00 20.00     0.279 HD
ENDROOT
BRANCH   6   9
HETATM    9  C7  UNL     1     -31.635   8.963   2.003  1.00 20.00     0.237 C 
BRANCH   9  10
HETATM   10  C6  UNL     1     -31.264   9.446   0.608  1.00 20.00     0.059 C 
BRANCH  10  11
HETATM   11  C8  UNL     1     -32.503   9.741  -0.220  1.00 20.00     0.223 C 
HETATM   12  F10 UNL     1     -33.236  10.703   0.400  1.00 20.00    -0.255 F 
ENDBRANCH  10  11
ENDBRANCH   9  10
ENDBRANCH   6   9
TORSDOF 3
