REMARK  3 active torsions:
REMARK  status: ('A' for Active; 'I' for Inactive)
REMARK    1  A    between atoms: C6_6  and  C7_7 
REMARK    2  A    between atoms: C6_6  and  C8_8 
REMARK    3  A    between atoms: C7_7  and  N9_9 
ROOT
HETATM    1  C1  UNL     1     -33.438   5.032   1.490  1.00 20.00     0.050 C 
HETATM    2  C2  UNL     1     -34.825   6.354   3.110  1.00 20.00     0.050 C 
HETATM    3  C3  UNL     1     -32.305   6.042   1.700  1.00 20.00     0.274 C 
HETATM    4  C4  UNL     1     -33.646   7.320   3.267  1.00 20.00     0.274 C 
HETATM    5  C5  UNL     1     -34.383   4.952   2.689  1.00 20.00     0.085 C 
HETATM    6  N9  UNL     1     -32.834   7.368   2.044  1.00 20.00     0.088 N 
HETATM    7 CL11 UNL     1     -33.588   4.110   4.057  1.00 20.00    -0.125 Cl
ENDROOT
BRANCH   6   8
HETATM    8  C7  UNL     1     -31.745   8.333   2.189  1.00 20.00     0.275 C 
BRANCH   8   9
HETATM    9  C6  UNL     1     -31.259   8.795   0.816  1.00 20.00     0.061 C 
BRANCH   9  10
HETATM   10  C8  UNL     1     -32.370   9.479   0.036  1.00 20.00     0.223 C 
HETATM   11  F10 UNL     1     -32.806  10.561   0.733  1.00 20.00    -0.255 F 
ENDBRANCH   9  10
ENDBRANCH   8   9
ENDBRANCH   6   8
TORSDOF 3
