REMARK  2 active torsions:
REMARK  status: ('A' for Active; 'I' for Inactive)
REMARK    1  A    between atoms: C4_4  and  C8_8 
REMARK    2  A    between atoms: C8_8  and  O9_9 
ROOT
HETATM    1  C1  UNL     1     -31.269   8.160   2.198  1.00 20.00     0.018 A 
HETATM    2  C2  UNL     1     -33.437   7.298   3.346  1.00 20.00     0.025 C 
HETATM    3  C3  UNL     1     -32.157   5.739   1.895  1.00 20.00     0.084 C 
HETATM    4  C4  UNL     1     -32.325   8.216   1.128  1.00 20.00     0.019 A 
HETATM    5  C5  UNL     1     -34.555   6.320   3.007  1.00 20.00     0.044 C 
HETATM    6  C6  UNL     1     -32.422   7.181   2.239  1.00 20.00    -0.025 A 
HETATM    7  C7  UNL     1     -35.419   5.972   4.205  1.00 20.00     0.021 C 
HETATM    8  S10 UNL     1     -33.680   4.857   2.369  1.00 20.00    -0.164 SA
ENDROOT
BRANCH   4   9
HETATM    9  C8  UNL     1     -33.235   9.392   1.035  1.00 20.00     0.169 C 
BRANCH   9  10
HETATM   10  O9  UNL     1     -32.567  10.474   0.386  1.00 20.00    -0.400 OA
HETATM   11  H24 UNL     1     -33.200  11.207   0.353  1.00 20.00     0.209 HD
ENDBRANCH   9  10
ENDBRANCH   4   9
TORSDOF 2
