REMARK  1 active torsions:
REMARK  status: ('A' for Active; 'I' for Inactive)
REMARK    1  A    between atoms: C4_4  and  C10_10 
ROOT
HETATM    1  C1  UNL     1     -32.995   7.827   3.145  1.00 20.00     0.007 C 
HETATM    2  C2  UNL     1     -34.104   7.102   3.907  1.00 20.00     0.009 C 
HETATM    3  C3  UNL     1     -34.151   5.325   2.095  1.00 20.00     0.013 C 
HETATM    4  C4  UNL     1     -33.113   7.599   1.633  1.00 20.00     0.003 C 
HETATM    5  C5  UNL     1     -33.103   6.097   1.269  1.00 20.00    -0.013 C 
HETATM    6  C6  UNL     1     -34.162   5.587   3.621  1.00 20.00    -0.047 C 
HETATM    7  C7  UNL     1     -31.716   5.449   1.317  1.00 20.00     0.010 C 
HETATM    8  C8  UNL     1     -33.011   4.857   4.337  1.00 20.00     0.015 C 
HETATM    9  C9  UNL     1     -35.480   5.026   4.199  1.00 20.00     0.015 C 
ENDROOT
BRANCH   4  10
HETATM   10  C10 UNL     1     -32.048   8.403   0.885  1.00 20.00     0.119 C 
HETATM   11 CL11 UNL     1     -32.568  10.087   0.722  1.00 20.00    -0.130 Cl
ENDBRANCH   4  10
TORSDOF 1
