REMARK  1 active torsions:
REMARK  status: ('A' for Active; 'I' for Inactive)
REMARK    1  A    between atoms: C1_1  and  C5_5 
ROOT
HETATM    1  C2  UNL     1     -34.255   6.796   2.602  1.00 20.00     0.013 C 
HETATM    2  C3  UNL     1     -33.079   7.684   3.021  1.00 20.00     0.009 C 
HETATM    3  C4  UNL     1     -31.524   6.293   1.578  1.00 20.00     0.013 C 
HETATM    4  C5  UNL     1     -33.812   5.377   2.224  1.00 20.00     0.051 C 
HETATM    5  C6  UNL     1     -32.712   5.416   1.147  1.00 20.00    -0.007 C 
HETATM    6  C7  UNL     1     -31.935   7.728   1.985  1.00 20.00    -0.047 C 
HETATM    7  C8  UNL     1     -32.238   4.025   0.717  1.00 20.00     0.011 C 
HETATM    8  C9  UNL     1     -30.718   8.435   2.614  1.00 20.00     0.015 C 
HETATM    9  C10 UNL     1     -32.362   8.542   0.747  1.00 20.00     0.015 C 
ENDROOT
BRANCH   4  10
HETATM   10  C1  UNL     1     -33.415   4.637   3.475  1.00 20.00     0.236 C 
HETATM   11  O11 UNL     1     -34.006   3.646   3.891  1.00 20.00    -0.306 OA
ENDBRANCH   4  10
TORSDOF 1
