REMARK  2 active torsions:
REMARK  status: ('A' for Active; 'I' for Inactive)
REMARK    1  A    between atoms: C3_3  and  C6_6 
REMARK    2  A    between atoms: C7_7  and  C9_9 
ROOT
HETATM    1  C1  UNL     1     -32.861   5.883   2.091  1.00 20.00     0.016 A 
HETATM    2  C2  UNL     1     -33.505   4.881   2.873  1.00 20.00     0.015 A 
HETATM    3  C3  UNL     1     -33.157   7.154   2.533  1.00 20.00    -0.013 A 
HETATM    4  C4  UNL     1     -34.269   5.424   3.883  1.00 20.00    -0.021 A 
HETATM    5  C8  UNL     1     -35.080   4.724   4.902  1.00 20.00     0.056 C 
HETATM    6  S10 UNL     1     -34.207   7.136   3.885  1.00 20.00    -0.099 SA
ENDROOT
BRANCH   3   7
HETATM    7  C6  UNL     1     -32.620   8.419   1.905  1.00 20.00     0.031 A 
HETATM    8  C5  UNL     1     -31.215   8.452   1.341  1.00 20.00     0.016 A 
HETATM    9  C7  UNL     1     -32.390   8.481   0.409  1.00 20.00     0.009 A 
BRANCH   9  10
HETATM   10  C9  UNL     1     -32.717   9.722  -0.346  1.00 20.00     0.120 C 
HETATM   11 CL11 UNL     1     -32.507  11.174   0.672  1.00 20.00    -0.130 Cl
ENDBRANCH   9  10
ENDBRANCH   3   7
TORSDOF 2
