REMARK  1 active torsions:
REMARK  status: ('A' for Active; 'I' for Inactive)
REMARK    1  A    between atoms: C4_4  and  C10_10 
ROOT
HETATM    1  C1  UNL     1     -31.956   8.080   3.589  1.00 20.00     0.006 C 
HETATM    2  C2  UNL     1     -32.327   9.309   2.759  1.00 20.00     0.009 C 
HETATM    3  C3  UNL     1     -33.320   7.770   0.992  1.00 20.00     0.013 C 
HETATM    4  C4  UNL     1     -32.911   6.897   3.371  1.00 20.00    -0.001 C 
HETATM    5  C5  UNL     1     -33.049   6.536   1.876  1.00 20.00    -0.013 C 
HETATM    6  C6  UNL     1     -32.443   9.021   1.248  1.00 20.00    -0.047 C 
HETATM    7  C7  UNL     1     -31.859   5.703   1.388  1.00 20.00     0.010 C 
HETATM    8  C8  UNL     1     -31.045   8.875   0.618  1.00 20.00     0.015 C 
HETATM    9  C9  UNL     1     -33.118  10.231   0.565  1.00 20.00     0.015 C 
ENDROOT
BRANCH   4  10
HETATM   10  C10 UNL     1     -34.283   7.175   4.000  1.00 20.00     0.090 C 
HETATM   11 BR11 UNL     1     -35.236   5.503   4.223  1.00 20.00    -0.096 Br
ENDBRANCH   4  10
TORSDOF 1
