REMARK  1 active torsions:
REMARK  status: ('A' for Active; 'I' for Inactive)
REMARK    1  A    between atoms: C5_5  and  C9_9 
ROOT
HETATM    1  C1  UNL     1     -33.082   8.890   3.069  1.00 20.00     0.036 C 
HETATM    2  C2  UNL     1     -31.303   7.229   2.147  1.00 20.00     0.016 A 
HETATM    3  C3  UNL     1     -33.808   6.571   2.427  1.00 20.00     0.041 C 
HETATM    4  C4  UNL     1     -33.410   8.512   4.510  1.00 20.00     0.169 C 
HETATM    5  C5  UNL     1     -32.041   7.744   0.939  1.00 20.00     0.009 A 
HETATM    6  C6  UNL     1     -34.086   6.320   3.912  1.00 20.00     0.118 C 
HETATM    7  C7  UNL     1     -32.753   7.645   2.277  1.00 20.00    -0.031 A 
HETATM    8  C8  UNL     1     -35.228   5.330   4.096  1.00 20.00     0.039 C 
HETATM    9  O10 UNL     1     -34.466   7.549   4.549  1.00 20.00    -0.386 OA
ENDROOT
BRANCH   5  10
HETATM   10  C9  UNL     1     -31.662   9.048   0.326  1.00 20.00     0.120 C 
HETATM   11 CL11 UNL     1     -32.983   9.696  -0.684  1.00 20.00    -0.130 Cl
ENDBRANCH   5  10
TORSDOF 1
