REMARK  4 active torsions:
REMARK  status: ('A' for Active; 'I' for Inactive)
REMARK    1  A    between atoms: C2_2  and  C6_6 
REMARK    2  A    between atoms: C3_3  and  C7_7 
REMARK    3  A    between atoms: C3_3  and  C8_8 
REMARK    4  A    between atoms: C8_8  and  O9_9 
ROOT
HETATM    1  C1  UNL     1     -31.732   7.767   2.153  1.00 20.00     0.018 A 
HETATM    2  C2  UNL     1     -33.016   8.252   1.543  1.00 20.00     0.011 A 
HETATM    3  C3  UNL     1     -32.780   6.757   1.716  1.00 20.00    -0.014 A 
ENDROOT
BRANCH   3   4
HETATM    4  C7  UNL     1     -33.573   6.056   2.787  1.00 20.00     0.007 C 
HETATM    5  C4  UNL     1     -34.351   7.013   3.643  1.00 20.00     0.006 C 
ENDBRANCH   3   4
BRANCH   3   6
HETATM    6  C8  UNL     1     -32.477   5.898   0.517  1.00 20.00     0.176 C 
BRANCH   6   7
HETATM    7  O9  UNL     1     -31.620   4.831   0.907  1.00 20.00    -0.395 OA
HETATM    8  C5  UNL     1     -31.304   3.989  -0.192  1.00 20.00     0.201 C 
ENDBRANCH   6   7
ENDBRANCH   3   6
BRANCH   2   9
HETATM    9  C6  UNL     1     -33.011   8.917   0.210  1.00 20.00     0.120 C 
HETATM   10 CL10 UNL     1     -32.530  10.631   0.345  1.00 20.00    -0.130 Cl
ENDBRANCH   2   9
TORSDOF 4
