REMARK  1 active torsions:
REMARK  status: ('A' for Active; 'I' for Inactive)
REMARK    1  A    between atoms: C5_5  and  C10_10 
ROOT
HETATM    1  C1  UNL     1     -33.990   5.180   2.318  1.00 20.00     0.002 C 
HETATM    2  C2  UNL     1     -32.674   5.599   1.673  1.00 20.00     0.011 C 
HETATM    3  C3  UNL     1     -34.040   6.015   3.588  1.00 20.00     0.010 C 
HETATM    4  C4  UNL     1     -31.001   7.490   2.250  1.00 20.00     0.017 A 
HETATM    5  C5  UNL     1     -31.817   8.005   1.104  1.00 20.00     0.009 A 
HETATM    6  C6  UNL     1     -32.449   7.041   2.108  1.00 20.00    -0.028 A 
HETATM    7  C7  UNL     1     -33.525   7.413   3.147  1.00 20.00    -0.040 C 
HETATM    8  C8  UNL     1     -34.686   8.200   2.514  1.00 20.00     0.015 C 
HETATM    9  C9  UNL     1     -33.011   8.159   4.381  1.00 20.00     0.015 C 
ENDROOT
BRANCH   5  10
HETATM   10  C10 UNL     1     -32.090   9.465   1.016  1.00 20.00     0.120 C 
HETATM   11 CL11 UNL     1     -33.066   9.857  -0.427  1.00 20.00    -0.130 Cl
ENDBRANCH   5  10
TORSDOF 1
