REMARK  0 active torsions:
REMARK  status: ('A' for Active; 'I' for Inactive)
ROOT
HETATM    1  C1  UNL     1     -35.003   4.894   4.208  1.00 20.00     0.006 C 
HETATM    2  C2  UNL     1     -33.525   5.272   4.011  1.00 20.00     0.038 C 
HETATM    3  C3  UNL     1     -35.366   6.328   3.787  1.00 20.00     0.038 C 
HETATM    4  C4  UNL     1     -31.682   6.590   1.587  1.00 20.00     0.042 C 
HETATM    5  C5  UNL     1     -33.315   7.759   3.171  1.00 20.00     0.053 C 
HETATM    6  C6  UNL     1     -32.835   5.798   0.970  1.00 20.00     0.170 C 
HETATM    7  C7  UNL     1     -32.136   7.906   2.205  1.00 20.00     0.062 C 
HETATM    8  C8  UNL     1     -34.003   6.396   3.034  1.00 20.00     0.062 C 
HETATM    9  O9  UNL     1     -34.075   6.020   1.638  1.00 20.00    -0.380 OA
HETATM   10 BR10 UNL     1     -32.614   9.158   0.763  1.00 20.00    -0.091 Br
ENDROOT
TORSDOF 0
