REMARK  2 active torsions:
REMARK  status: ('A' for Active; 'I' for Inactive)
REMARK    1  A    between atoms: C7_7  and  C10_10 
REMARK    2  A    between atoms: C7_7  and  C11_11 
ROOT
HETATM    1  C1  UNL     1     -34.032   6.782   3.521  1.00 20.00     0.140 C 
HETATM    2  C2  UNL     1     -33.326   8.972   1.472  1.00 20.00     0.001 C 
HETATM    3  C3  UNL     1     -33.417   9.253   2.965  1.00 20.00     0.013 C 
HETATM    4  C4  UNL     1     -32.102   8.074   1.352  1.00 20.00     0.007 C 
HETATM    5  C5  UNL     1     -33.019   7.939   3.618  1.00 20.00     0.061 C 
HETATM    6  C6  UNL     1     -32.130   7.177   2.595  1.00 20.00     0.013 C 
HETATM    7  C7  UNL     1     -33.055   5.900   2.693  1.00 20.00     0.025 C 
HETATM    8  O12 UNL     1     -35.160   6.624   3.938  1.00 20.00    -0.297 OA
ENDROOT
BRANCH   7   9
HETATM    9  C10 UNL     1     -32.433   4.771   3.517  1.00 20.00     0.013 C 
HETATM   10  C8  UNL     1     -33.474   3.854   4.066  1.00 20.00     0.006 C 
ENDBRANCH   7   9
BRANCH   7  11
HETATM   11  C11 UNL     1     -33.647   5.366   1.393  1.00 20.00     0.013 C 
HETATM   12  C9  UNL     1     -32.665   4.527   0.641  1.00 20.00     0.006 C 
ENDBRANCH   7  11
TORSDOF 2
