REMARK  2 active torsions:
REMARK  status: ('A' for Active; 'I' for Inactive)
REMARK    1  A    between atoms: C5_5  and  C6_6 
REMARK    2  A    between atoms: C7_7  and  C8_8 
ROOT
HETATM    1  C1  UNL     1     -32.699   9.464   1.718  1.00 20.00     0.033 C 
HETATM    2  C3  UNL     1     -32.907  10.447   0.585  1.00 20.00     0.168 C 
HETATM    3  C4  UNL     1     -32.156   8.435  -0.319  1.00 20.00     0.172 C 
HETATM    4  C5  UNL     1     -32.842   8.138   1.003  1.00 20.00     0.016 C 
HETATM    5  O9  UNL     1     -32.410   9.819  -0.606  1.00 20.00    -0.391 OA
ENDROOT
BRANCH   4   6
HETATM    6  C6  UNL     1     -32.245   6.960   1.750  1.00 20.00    -0.003 A 
HETATM    7  C2  UNL     1     -32.735   5.564   1.477  1.00 20.00     0.011 A 
HETATM    8  C7  UNL     1     -33.008   6.207   2.812  1.00 20.00     0.000 A 
BRANCH   8   9
HETATM    9  C8  UNL     1     -34.401   6.563   3.204  1.00 20.00     0.090 C 
HETATM   10 BR10 UNL     1     -34.389   7.865   4.658  1.00 20.00    -0.096 Br
ENDBRANCH   8   9
ENDBRANCH   4   6
TORSDOF 2
