REMARK  1 active torsions:
REMARK  status: ('A' for Active; 'I' for Inactive)
REMARK    1  A    between atoms: C5_5  and  C10_10 
ROOT
HETATM    1  C1  UNL     1     -32.013   8.171   3.182  1.00 20.00     0.002 C 
HETATM    2  C2  UNL     1     -33.118   7.697   4.119  1.00 20.00     0.011 C 
HETATM    3  C3  UNL     1     -32.462   7.657   1.823  1.00 20.00     0.010 C 
HETATM    4  C4  UNL     1     -35.126   6.107   3.745  1.00 20.00     0.017 A 
HETATM    5  C5  UNL     1     -34.082   5.284   4.435  1.00 20.00     0.005 A 
HETATM    6  C6  UNL     1     -33.657   6.415   3.497  1.00 20.00    -0.029 A 
HETATM    7  C7  UNL     1     -33.005   6.230   2.113  1.00 20.00    -0.040 C 
HETATM    8  C8  UNL     1     -33.964   5.831   0.988  1.00 20.00     0.015 C 
HETATM    9  C9  UNL     1     -31.825   5.243   2.160  1.00 20.00     0.015 C 
ENDROOT
BRANCH   5  10
HETATM   10  C10 UNL     1     -33.997   3.830   4.130  1.00 20.00     0.090 C 
HETATM   11 BR11 UNL     1     -32.529   3.008   5.120  1.00 20.00    -0.096 Br
ENDBRANCH   5  10
TORSDOF 1
