REMARK  2 active torsions:
REMARK  status: ('A' for Active; 'I' for Inactive)
REMARK    1  A    between atoms: C6_6  and  C10_10 
REMARK    2  A    between atoms: C7_7  and  C9_9 
ROOT
HETATM    1  C1  UNL     1     -33.135   8.048   4.434  1.00 20.00     0.001 C 
HETATM    2  C2  UNL     1     -34.485   7.332   4.417  1.00 20.00     0.013 C 
HETATM    3  C3  UNL     1     -32.792   8.633   3.066  1.00 20.00     0.010 C 
HETATM    4  C4  UNL     1     -34.189   6.833   1.954  1.00 20.00     0.023 C 
HETATM    5  C5  UNL     1     -31.602   6.840   1.598  1.00 20.00     0.016 A 
HETATM    6  C6  UNL     1     -34.572   6.255   3.325  1.00 20.00     0.094 C 
HETATM    7  C7  UNL     1     -32.204   7.829   0.639  1.00 20.00     0.009 A 
HETATM    8  C8  UNL     1     -32.868   7.577   1.985  1.00 20.00    -0.035 A 
ENDROOT
BRANCH   6   9
HETATM    9  C10 UNL     1     -33.737   5.021   3.676  1.00 20.00     0.391 C 
HETATM   10  F11 UNL     1     -33.885   4.081   2.730  1.00 20.00    -0.171 F 
HETATM   11  F12 UNL     1     -32.440   5.352   3.761  1.00 20.00    -0.171 F 
HETATM   12  F13 UNL     1     -34.135   4.517   4.855  1.00 20.00    -0.171 F 
ENDBRANCH   6   9
BRANCH   7  13
HETATM   13  C9  UNL     1     -31.486   9.095   0.316  1.00 20.00     0.120 C 
HETATM   14 CL14 UNL     1     -32.601  10.316  -0.357  1.00 20.00    -0.130 Cl
ENDBRANCH   7  13
TORSDOF 2
