REMARK  3 active torsions:
REMARK  status: ('A' for Active; 'I' for Inactive)
REMARK    1  A    between atoms: C1_1  and  C5_5 
REMARK    2  A    between atoms: C5_5  and  C7_7 
REMARK    3  A    between atoms: C6_6  and  C7_7 
ROOT
HETATM    1  C5  UNL     1     -33.400   6.576   3.700  1.00 20.00     0.274 C 
HETATM    2  F10 UNL     1     -33.599   7.700   4.450  1.00 20.00    -0.238 F 
ENDROOT
BRANCH   1   3
HETATM    3  C1  UNL     1     -34.702   5.789   3.851  1.00 20.00     0.208 C 
HETATM    4  O8  UNL     1     -35.716   6.341   3.338  1.00 20.00    -0.646 OA
HETATM    5  O9  UNL     1     -34.605   4.684   4.455  1.00 20.00    -0.646 OA
ENDBRANCH   1   3
BRANCH   1   6
HETATM    6  C7  UNL     1     -33.072   7.007   2.262  1.00 20.00     0.029 C 
HETATM    7  C4  UNL     1     -32.172   8.251   2.302  1.00 20.00     0.014 C 
BRANCH   6   8
HETATM    8  C6  UNL     1     -32.483   5.849   1.406  1.00 20.00    -0.016 C 
HETATM    9  C2  UNL     1     -33.574   4.890   0.916  1.00 20.00     0.010 C 
HETATM   10  C3  UNL     1     -31.641   6.319   0.216  1.00 20.00     0.010 C 
ENDBRANCH   6   8
ENDBRANCH   1   6
TORSDOF 3
