REMARK  2 active torsions:
REMARK  status: ('A' for Active; 'I' for Inactive)
REMARK    1  A    between atoms: C5_5  and  C8_8 
REMARK    2  A    between atoms: C9_9  and  C10_10 
ROOT
HETATM    1  C1  UNL     1     -32.330   6.484   1.865  1.00 20.00     0.009 A 
HETATM    2  C2  UNL     1     -33.722   7.834   3.306  1.00 20.00     0.009 A 
HETATM    3  C3  UNL     1     -32.877   5.327   2.421  1.00 20.00     0.019 A 
HETATM    4  C4  UNL     1     -34.269   6.678   3.862  1.00 20.00     0.019 A 
HETATM    5  C5  UNL     1     -32.753   7.737   2.308  1.00 20.00    -0.053 A 
HETATM    6  C6  UNL     1     -33.846   5.424   3.420  1.00 20.00     0.011 A 
HETATM    7 BR12 UNL     1     -34.587   3.857   4.173  1.00 20.00    -0.051 Br
ENDROOT
BRANCH   5   8
HETATM    8  C8  UNL     1     -32.160   8.990   1.706  1.00 20.00     0.024 A 
HETATM    9  C7  UNL     1     -32.983  10.258   1.622  1.00 20.00     0.016 A 
HETATM   10  C9  UNL     1     -32.662   9.497   0.370  1.00 20.00     0.008 A 
BRANCH  10  11
HETATM   11  C10 UNL     1     -31.704  10.058  -0.624  1.00 20.00     0.119 C 
HETATM   12 CL11 UNL     1     -31.049   8.779  -1.684  1.00 20.00    -0.130 Cl
ENDBRANCH  10  11
ENDBRANCH   5   8
TORSDOF 2
