REMARK  3 active torsions:
REMARK  status: ('A' for Active; 'I' for Inactive)
REMARK    1  A    between atoms: C3_3  and  O10_10 
REMARK    2  A    between atoms: C4_4  and  C8_8 
REMARK    3  A    between atoms: C4_4  and  C9_9 
ROOT
HETATM    1  C1  UNL     1     -33.669   7.769   4.610  1.00 20.00     0.037 C 
HETATM    2  C2  UNL     1     -34.423   6.977   3.515  1.00 20.00    -0.005 C 
HETATM    3  C3  UNL     1     -32.341   7.435   3.898  1.00 20.00     0.127 C 
HETATM    4  C4  UNL     1     -33.162   7.161   2.595  1.00 20.00    -0.012 C 
HETATM    5  C5  UNL     1     -34.847   5.574   3.933  1.00 20.00     0.011 C 
ENDROOT
BRANCH   4   6
HETATM    6  C8  UNL     1     -32.679   5.935   1.822  1.00 20.00     0.008 C 
HETATM    7  C6  UNL     1     -33.732   5.413   0.901  1.00 20.00     0.006 C 
ENDBRANCH   4   6
BRANCH   4   8
HETATM    8  C9  UNL     1     -33.302   8.364   1.652  1.00 20.00     0.008 C 
HETATM    9  C7  UNL     1     -32.097   8.522   0.788  1.00 20.00     0.006 C 
ENDBRANCH   4   8
BRANCH   3  10
HETATM   10  O10 UNL     1     -31.369   8.494   3.843  1.00 20.00    -0.395 OA
HETATM   11  H28 UNL     1     -31.171   8.717   4.761  1.00 20.00     0.210 HD
ENDBRANCH   3  10
TORSDOF 3
