REMARK  2 active torsions:
REMARK  status: ('A' for Active; 'I' for Inactive)
REMARK    1  A    between atoms: C4_4  and  C6_6 
REMARK    2  A    between atoms: C7_7  and  C8_8 
ROOT
HETATM    1  C1  UNL     1     -34.244   8.092   4.140  1.00 20.00     0.034 A 
HETATM    2  C2  UNL     1     -35.175   7.129   4.454  1.00 20.00     0.142 A 
HETATM    3  C3  UNL     1     -33.818   6.213   3.016  1.00 20.00     0.148 A 
HETATM    4  C4  UNL     1     -33.362   7.497   3.207  1.00 20.00    -0.029 A 
HETATM    5  O9  UNL     1     -34.923   5.981   3.773  1.00 20.00    -0.334 OA
ENDROOT
BRANCH   4   6
HETATM    6  C6  UNL     1     -32.164   8.139   2.549  1.00 20.00     0.026 A 
HETATM    7  C5  UNL     1     -31.249   7.320   1.664  1.00 20.00     0.016 A 
HETATM    8  C7  UNL     1     -32.148   8.351   1.049  1.00 20.00     0.005 A 
BRANCH   8   9
HETATM    9  C8  UNL     1     -31.573   9.601   0.478  1.00 20.00     0.090 C 
HETATM   10 BR10 UNL     1     -32.955  10.967   0.295  1.00 20.00    -0.096 Br
ENDBRANCH   8   9
ENDBRANCH   4   6
TORSDOF 2
