REMARK  3 active torsions:
REMARK  status: ('A' for Active; 'I' for Inactive)
REMARK    1  A    between atoms: C4_4  and  C5_5 
REMARK    2  A    between atoms: C6_6  and  C7_7 
REMARK    3  A    between atoms: C7_7  and  O8_8 
ROOT
HETATM    1  C3  UNL     1     -33.069   5.294   2.673  1.00 20.00     0.012 A 
HETATM    2  C5  UNL     1     -33.349   6.622   2.020  1.00 20.00    -0.004 A 
HETATM    3  C6  UNL     1     -33.876   6.335   3.402  1.00 20.00     0.014 A 
ENDROOT
BRANCH   2   4
HETATM    4  C4  UNL     1     -32.262   7.652   1.759  1.00 20.00    -0.010 A 
HETATM    5  C1  UNL     1     -31.663   7.873   0.398  1.00 20.00     0.005 A 
HETATM    6  C2  UNL     1     -32.521   8.937   1.023  1.00 20.00     0.005 A 
ENDBRANCH   2   4
BRANCH   3   7
HETATM    7  C7  UNL     1     -35.335   6.134   3.625  1.00 20.00     0.169 C 
BRANCH   7   8
HETATM    8  O8  UNL     1     -35.542   5.251   4.727  1.00 20.00    -0.400 OA
HETATM    9  H20 UNL     1     -36.501   5.156   4.826  1.00 20.00     0.209 HD
ENDBRANCH   7   8
ENDBRANCH   3   7
TORSDOF 3
