REMARK  1 active torsions:
REMARK  status: ('A' for Active; 'I' for Inactive)
REMARK    1  A    between atoms: C7_7  and  C11_11 
ROOT
HETATM    1  C1  UNL     1     -34.000   5.436   2.078  1.00 20.00     0.005 C 
HETATM    2  C2  UNL     1     -32.768   6.102   1.464  1.00 20.00     0.010 C 
HETATM    3  C3  UNL     1     -33.765   8.126   2.652  1.00 20.00     0.014 C 
HETATM    4  C4  UNL     1     -31.186   7.949   2.404  1.00 20.00     0.016 A 
HETATM    5  C5  UNL     1     -34.083   5.737   3.578  1.00 20.00    -0.015 C 
HETATM    6  C6  UNL     1     -34.242   7.258   3.835  1.00 20.00    -0.014 C 
HETATM    7  C7  UNL     1     -31.687   8.409   1.067  1.00 20.00     0.009 A 
HETATM    8  C8  UNL     1     -32.570   7.529   1.944  1.00 20.00    -0.035 A 
HETATM    9  C9  UNL     1     -35.224   4.947   4.221  1.00 20.00     0.010 C 
HETATM   10  C10 UNL     1     -33.532   7.656   5.135  1.00 20.00     0.010 C 
ENDROOT
BRANCH   7  11
HETATM   11  C11 UNL     1     -31.971   9.851   0.823  1.00 20.00     0.120 C 
HETATM   12 CL12 UNL     1     -33.052  10.069  -0.581  1.00 20.00    -0.130 Cl
ENDBRANCH   7  11
TORSDOF 1
