REMARK  1 active torsions:
REMARK  status: ('A' for Active; 'I' for Inactive)
REMARK    1  A    between atoms: C4_4  and  C10_10 
ROOT
HETATM    1  C1  UNL     1     -32.779   5.364   2.127  1.00 20.00     0.006 C 
HETATM    2  C2  UNL     1     -31.911   6.531   1.644  1.00 20.00     0.009 C 
HETATM    3  C3  UNL     1     -33.887   7.861   2.527  1.00 20.00     0.013 C 
HETATM    4  C4  UNL     1     -33.285   5.576   3.556  1.00 20.00    -0.001 C 
HETATM    5  C5  UNL     1     -34.173   6.847   3.658  1.00 20.00    -0.013 C 
HETATM    6  C6  UNL     1     -32.410   7.929   2.089  1.00 20.00    -0.047 C 
HETATM    7  C7  UNL     1     -35.682   6.576   3.696  1.00 20.00     0.010 C 
HETATM    8  C8  UNL     1     -31.533   8.477   3.234  1.00 20.00     0.015 C 
HETATM    9  C9  UNL     1     -32.287   8.910   0.906  1.00 20.00     0.015 C 
ENDROOT
BRANCH   4  10
HETATM   10  C10 UNL     1     -33.928   4.297   4.095  1.00 20.00     0.090 C 
HETATM   11 BR11 UNL     1     -32.538   3.065   4.644  1.00 20.00    -0.096 Br
ENDBRANCH   4  10
TORSDOF 1
