REMARK  2 active torsions:
REMARK  status: ('A' for Active; 'I' for Inactive)
REMARK    1  A    between atoms: C2_2  and  C6_6 
REMARK    2  A    between atoms: C7_7  and  C10_10 
ROOT
HETATM    1  C1  UNL     1     -33.055   8.177   2.243  1.00 20.00     0.022 A 
HETATM    2  C2  UNL     1     -33.197   6.795   2.558  1.00 20.00    -0.040 A 
HETATM    3  C3  UNL     1     -32.452   8.369   1.019  1.00 20.00    -0.020 A 
HETATM    4  C4  UNL     1     -32.698   5.983   1.563  1.00 20.00    -0.014 A 
HETATM    5  C8  UNL     1     -32.128   9.644   0.342  1.00 20.00     0.056 C 
HETATM    6  C9  UNL     1     -32.655   4.504   1.505  1.00 20.00     0.057 C 
HETATM    7  S11 UNL     1     -32.060   6.886   0.256  1.00 20.00    -0.100 SA
ENDROOT
BRANCH   2   8
HETATM    8  C6  UNL     1     -33.824   6.290   3.837  1.00 20.00     0.025 A 
HETATM    9  C5  UNL     1     -35.327   6.144   3.943  1.00 20.00     0.016 A 
HETATM   10  C7  UNL     1     -34.465   4.919   3.875  1.00 20.00     0.008 A 
BRANCH  10  11
HETATM   11  C10 UNL     1     -34.301   4.050   5.074  1.00 20.00     0.119 C 
HETATM   12 CL12 UNL     1     -32.846   3.025   4.937  1.00 20.00    -0.130 Cl
ENDBRANCH  10  11
ENDBRANCH   2   8
TORSDOF 2
