REMARK  1 active torsions:
REMARK  status: ('A' for Active; 'I' for Inactive)
REMARK    1  A    between atoms: C6_6  and  C8_8 
ROOT
HETATM    1  C1  UNL     1     -33.737   4.386   3.288  1.00 20.00     0.011 C 
HETATM    2  C2  UNL     1     -32.736   5.503   3.000  1.00 20.00     0.011 C 
HETATM    3  C3  UNL     1     -33.809   7.003   1.161  1.00 20.00     0.017 A 
HETATM    4  C4  UNL     1     -34.688   4.727   4.428  1.00 20.00     0.074 C 
HETATM    5  C5  UNL     1     -34.329   7.359   3.684  1.00 20.00     0.083 C 
HETATM    6  C6  UNL     1     -32.629   7.742   1.728  1.00 20.00     0.009 A 
HETATM    7  C7  UNL     1     -33.428   6.795   2.614  1.00 20.00    -0.027 A 
HETATM    8  S9  UNL     1     -35.678   6.204   4.053  1.00 20.00    -0.168 SA
ENDROOT
BRANCH   6   9
HETATM    9  C8  UNL     1     -32.671   9.224   1.875  1.00 20.00     0.120 C 
HETATM   10 CL10 UNL     1     -32.328  10.039   0.324  1.00 20.00    -0.130 Cl
ENDBRANCH   6   9
TORSDOF 1
