REMARK  2 active torsions:
REMARK  status: ('A' for Active; 'I' for Inactive)
REMARK    1  A    between atoms: C4_4  and  C9_9 
REMARK    2  A    between atoms: C5_5  and  C6_6 
ROOT
HETATM    1  C3  UNL     1     -31.010   8.095   2.345  1.00 20.00     0.017 A 
HETATM    2  C4  UNL     1     -31.765   8.503   1.112  1.00 20.00     0.009 A 
HETATM    3  C6  UNL     1     -32.523   7.946   2.316  1.00 20.00    -0.032 A 
HETATM    4  C8  UNL     1     -33.312   8.899   3.181  1.00 20.00     0.016 C 
ENDROOT
BRANCH   3   5
HETATM    5  C5  UNL     1     -33.160   6.551   2.217  1.00 20.00    -0.036 A 
HETATM    6  C1  UNL     1     -33.459   5.945   0.866  1.00 20.00     0.011 A 
HETATM    7  C2  UNL     1     -32.352   5.380   1.709  1.00 20.00     0.011 A 
HETATM    8  C7  UNL     1     -34.147   6.258   3.319  1.00 20.00     0.016 C 
ENDBRANCH   3   5
BRANCH   2   9
HETATM    9  C9  UNL     1     -31.830   9.935   0.706  1.00 20.00     0.120 C 
HETATM   10 CL10 UNL     1     -33.195  10.231  -0.406  1.00 20.00    -0.130 Cl
ENDBRANCH   2   9
TORSDOF 2
