REMARK  1 active torsions:
REMARK  status: ('A' for Active; 'I' for Inactive)
REMARK    1  A    between atoms: C6_6  and  C8_8 
ROOT
HETATM    1  C1  UNL     1     -32.741   7.220   3.589  1.00 20.00     0.036 C 
HETATM    2  C2  UNL     1     -32.824   5.334   1.928  1.00 20.00     0.036 C 
HETATM    3  C3  UNL     1     -34.989   5.952   3.235  1.00 20.00     0.016 A 
HETATM    4  C4  UNL     1     -32.511   8.155   2.407  1.00 20.00     0.168 C 
HETATM    5  C5  UNL     1     -32.581   6.381   0.845  1.00 20.00     0.168 C 
HETATM    6  C6  UNL     1     -34.158   5.137   4.190  1.00 20.00     0.009 A 
HETATM    7  C7  UNL     1     -33.479   5.982   3.127  1.00 20.00    -0.032 A 
HETATM    8  O9  UNL     1     -31.813   7.471   1.362  1.00 20.00    -0.391 OA
ENDROOT
BRANCH   6   9
HETATM    9  C8  UNL     1     -34.191   3.648   4.132  1.00 20.00     0.120 C 
HETATM   10 CL10 UNL     1     -32.750   2.939   4.911  1.00 20.00    -0.130 Cl
ENDBRANCH   6   9
TORSDOF 1
