REMARK  3 active torsions:
REMARK  status: ('A' for Active; 'I' for Inactive)
REMARK    1  A    between atoms: C4_4  and  C6_6 
REMARK    2  A    between atoms: C5_5  and  C8_8 
REMARK    3  A    between atoms: C6_6  and  C9_9 
ROOT
HETATM    1  C3  UNL     1     -31.436   7.142   1.823  1.00 20.00     0.017 A 
HETATM    2  C5  UNL     1     -32.247   8.406   1.814  1.00 20.00     0.009 A 
HETATM    3  C6  UNL     1     -32.929   7.075   2.100  1.00 20.00    -0.032 A 
ENDROOT
BRANCH   3   4
HETATM    4  C4  UNL     1     -33.438   6.786   3.521  1.00 20.00    -0.006 A 
HETATM    5  C1  UNL     1     -34.674   7.431   4.087  1.00 20.00     0.006 A 
HETATM    6  C2  UNL     1     -34.663   5.957   3.792  1.00 20.00     0.006 A 
ENDBRANCH   3   4
BRANCH   3   7
HETATM    7  C9  UNL     1     -33.788   6.453   1.026  1.00 20.00     0.006 C 
HETATM    8  C7  UNL     1     -33.404   5.030   0.743  1.00 20.00     0.006 C 
ENDBRANCH   3   7
BRANCH   2   9
HETATM    9  C8  UNL     1     -32.449   9.165   0.547  1.00 20.00     0.120 C 
HETATM   10 CL10 UNL     1     -32.931  10.852   0.874  1.00 20.00    -0.130 Cl
ENDBRANCH   2   9
TORSDOF 3
