REMARK  1 active torsions:
REMARK  status: ('A' for Active; 'I' for Inactive)
REMARK    1  A    between atoms: C5_5  and  C10_10 
ROOT
HETATM    1  C1  UNL     1     -31.366   7.411   1.441  1.00 20.00     0.017 A 
HETATM    2  C2  UNL     1     -33.356   6.750   2.942  1.00 20.00     0.020 C 
HETATM    3  C3  UNL     1     -32.085   8.958   3.387  1.00 20.00     0.083 C 
HETATM    4  C4  UNL     1     -33.927   7.946   5.156  1.00 20.00     0.082 C 
HETATM    5  C5  UNL     1     -32.544   8.190   0.939  1.00 20.00     0.005 A 
HETATM    6  C6  UNL     1     -32.439   7.850   2.423  1.00 20.00    -0.026 A 
HETATM    7  C7  UNL     1     -34.476   7.253   3.881  1.00 20.00    -0.038 C 
HETATM    8  C8  UNL     1     -35.419   8.211   3.122  1.00 20.00     0.015 C 
HETATM    9  C9  UNL     1     -35.320   6.033   4.312  1.00 20.00     0.015 C 
HETATM   10  S11 UNL     1     -32.169   8.424   5.105  1.00 20.00    -0.168 SA
ENDROOT
BRANCH   5  11
HETATM   11  C10 UNL     1     -32.355   9.572   0.414  1.00 20.00     0.090 C 
HETATM   12 BR12 UNL     1     -31.100   9.568  -1.081  1.00 20.00    -0.096 Br
ENDBRANCH   5  11
TORSDOF 1
