REMARK  1 active torsions:
REMARK  status: ('A' for Active; 'I' for Inactive)
REMARK    1  A    between atoms: C5_5  and  C7_7 
ROOT
HETATM    1  C1  UNL     1     -32.697   7.712   3.895  1.00 20.00     0.020 C 
HETATM    2  C2  UNL     1     -35.155   6.876   3.747  1.00 20.00     0.017 A 
HETATM    3  C3  UNL     1     -32.384   8.627   2.727  1.00 20.00     0.075 C 
HETATM    4  C4  UNL     1     -33.334   6.207   2.015  1.00 20.00     0.083 C 
HETATM    5  C5  UNL     1     -34.360   5.778   4.396  1.00 20.00     0.005 A 
HETATM    6  C6  UNL     1     -33.692   6.700   3.392  1.00 20.00    -0.026 A 
HETATM    7  S8  UNL     1     -32.283   7.515   1.303  1.00 20.00    -0.168 SA
ENDROOT
BRANCH   5   8
HETATM    8  C7  UNL     1     -34.667   4.353   4.083  1.00 20.00     0.090 C 
HETATM    9 BR9  UNL     1     -33.130   3.220   4.484  1.00 20.00    -0.096 Br
ENDBRANCH   5   8
TORSDOF 1
