REMARK  2 active torsions:
REMARK  status: ('A' for Active; 'I' for Inactive)
REMARK    1  A    between atoms: C4_4  and  C6_6 
REMARK    2  A    between atoms: C5_5  and  C8_8 
ROOT
HETATM    1  C3  UNL     1     -32.510   6.645   1.714  1.00 20.00     0.016 A 
HETATM    2  C5  UNL     1     -32.997   7.990   1.255  1.00 20.00     0.009 A 
HETATM    3  C6  UNL     1     -32.863   7.701   2.749  1.00 20.00    -0.035 A 
HETATM    4  C7  UNL     1     -31.712   8.316   3.508  1.00 20.00     0.016 C 
ENDROOT
BRANCH   3   5
HETATM    5  C4  UNL     1     -34.137   7.556   3.598  1.00 20.00    -0.006 A 
HETATM    6  C1  UNL     1     -34.793   6.228   3.855  1.00 20.00     0.006 A 
HETATM    7  C2  UNL     1     -34.127   6.967   4.981  1.00 20.00     0.006 A 
ENDBRANCH   3   5
BRANCH   2   8
HETATM    8  C8  UNL     1     -32.084   8.913   0.524  1.00 20.00     0.120 C 
HETATM    9 CL9  UNL     1     -32.679  10.595   0.588  1.00 20.00    -0.130 Cl
ENDBRANCH   2   8
TORSDOF 2
