REMARK  1 active torsions:
REMARK  status: ('A' for Active; 'I' for Inactive)
REMARK    1  A    between atoms: C4_4  and  C9_9 
ROOT
HETATM    1  C1  UNL     1     -33.292   6.771   2.514  1.00 20.00     0.131 C 
HETATM    2  C2  UNL     1     -33.667   8.241   2.253  1.00 20.00     0.084 C 
HETATM    3  C3  UNL     1     -32.007   6.886   1.661  1.00 20.00     0.056 C 
HETATM    4  C4  UNL     1     -32.220   8.439   1.721  1.00 20.00     0.011 C 
HETATM    5  C5  UNL     1     -32.075   6.165   0.326  1.00 20.00     0.018 C 
HETATM    6  O10 UNL     1     -33.810   5.872   3.143  1.00 20.00    -0.298 OA
ENDROOT
BRANCH   4   7
HETATM    7  C9  UNL     1     -32.095   9.251   0.445  1.00 20.00    -0.047 C 
HETATM    8  C6  UNL     1     -30.633   9.248  -0.043  1.00 20.00     0.015 C 
HETATM    9  C7  UNL     1     -32.532  10.707   0.699  1.00 20.00     0.015 C 
HETATM   10  C8  UNL     1     -32.988   8.648  -0.656  1.00 20.00     0.015 C 
ENDBRANCH   4   7
TORSDOF 1
