REMARK  2 active torsions:
REMARK  status: ('A' for Active; 'I' for Inactive)
REMARK    1  A    between atoms: C3_3  and  O9_9 
REMARK    2  A    between atoms: C4_4  and  C8_8 
ROOT
HETATM    1  C1  UNL     1     -35.360   6.962   4.519  1.00 20.00     0.037 C 
HETATM    2  C2  UNL     1     -34.164   7.384   3.633  1.00 20.00    -0.006 C 
HETATM    3  C3  UNL     1     -35.348   5.594   3.799  1.00 20.00     0.127 C 
HETATM    4  C4  UNL     1     -33.841   5.856   3.454  1.00 20.00    -0.015 C 
HETATM    5  C5  UNL     1     -33.143   8.304   4.276  1.00 20.00     0.011 C 
HETATM    6  C6  UNL     1     -32.844   5.249   4.445  1.00 20.00     0.018 C 
ENDROOT
BRANCH   4   7
HETATM    7  C8  UNL     1     -33.473   5.481   2.019  1.00 20.00     0.007 C 
HETATM    8  C7  UNL     1     -32.265   6.223   1.549  1.00 20.00     0.006 C 
ENDBRANCH   4   7
BRANCH   3   9
HETATM    9  O9  UNL     1     -35.633   4.442   4.613  1.00 20.00    -0.395 OA
HETATM   10  H25 UNL     1     -36.519   4.585   4.970  1.00 20.00     0.210 HD
ENDBRANCH   3   9
TORSDOF 2
