REMARK  2 active torsions:
REMARK  status: ('A' for Active; 'I' for Inactive)
REMARK    1  A    between atoms: C2_2  and  C6_6 
REMARK    2  A    between atoms: C3_3  and  C7_7 
ROOT
HETATM    1  C1  UNL     1     -32.579   6.962   1.433  1.00 20.00     0.011 A 
HETATM    2  C2  UNL     1     -32.723   7.816   2.665  1.00 20.00     0.004 A 
HETATM    3  C3  UNL     1     -32.182   8.415   1.388  1.00 20.00    -0.006 A 
ENDROOT
BRANCH   3   4
HETATM    4  C7  UNL     1     -32.962   9.382   0.565  1.00 20.00    -0.018 C 
HETATM    5  C4  UNL     1     -32.759  10.833   1.040  1.00 20.00     0.010 C 
HETATM    6  C5  UNL     1     -32.602   9.284  -0.930  1.00 20.00     0.010 C 
ENDBRANCH   3   4
BRANCH   2   7
HETATM    7  C6  UNL     1     -34.075   8.149   3.195  1.00 20.00     0.119 C 
HETATM    8 CL8  UNL     1     -34.753   6.793   4.138  1.00 20.00    -0.130 Cl
ENDBRANCH   2   7
TORSDOF 2
