REMARK  1 active torsions:
REMARK  status: ('A' for Active; 'I' for Inactive)
REMARK    1  A    between atoms: C5_5  and  C10_10 
ROOT
HETATM    1  C1  UNL     1     -31.856   6.394   1.170  1.00 20.00     0.036 C 
HETATM    2  C2  UNL     1     -30.996   8.638   2.132  1.00 20.00     0.016 A 
HETATM    3  C3  UNL     1     -32.797   7.218   3.341  1.00 20.00     0.047 C 
HETATM    4  C4  UNL     1     -33.176   5.675   0.931  1.00 20.00     0.169 C 
HETATM    5  C5  UNL     1     -32.309   8.984   1.486  1.00 20.00     0.009 A 
HETATM    6  C6  UNL     1     -32.088   7.592   2.058  1.00 20.00    -0.031 A 
HETATM    7  C7  UNL     1     -34.074   6.400   3.055  1.00 20.00     0.054 C 
HETATM    8  C8  UNL     1     -34.558   5.759   4.364  1.00 20.00     0.045 C 
HETATM    9  C9  UNL     1     -35.210   7.270   2.498  1.00 20.00     0.045 C 
HETATM   10  O11 UNL     1     -33.784   5.304   2.170  1.00 20.00    -0.381 OA
ENDROOT
BRANCH   5  11
HETATM   11  C10 UNL     1     -32.377   9.256   0.023  1.00 20.00     0.120 C 
HETATM   12 CL12 UNL     1     -31.852  10.921  -0.351  1.00 20.00    -0.130 Cl
ENDBRANCH   5  11
TORSDOF 1
