REMARK  2 active torsions:
REMARK  status: ('A' for Active; 'I' for Inactive)
REMARK    1  A    between atoms: C5_5  and  C8_8 
REMARK    2  A    between atoms: C9_9  and  C10_10 
ROOT
HETATM    1  C1  UNL     1     -32.755   5.649   1.706  1.00 20.00     0.009 A 
HETATM    2  C2  UNL     1     -33.501   7.256   3.349  1.00 20.00     0.009 A 
HETATM    3  C3  UNL     1     -31.878   6.596   1.178  1.00 20.00     0.024 A 
HETATM    4  C4  UNL     1     -32.624   8.203   2.821  1.00 20.00     0.024 A 
HETATM    5  C5  UNL     1     -33.567   5.979   2.792  1.00 20.00    -0.053 A 
HETATM    6  C6  UNL     1     -31.812   7.873   1.735  1.00 20.00     0.034 A 
HETATM    7 CL11 UNL     1     -30.730   9.042   1.083  1.00 20.00    -0.084 Cl
ENDROOT
BRANCH   5   8
HETATM    8  C8  UNL     1     -34.503   4.967   3.357  1.00 20.00     0.024 A 
HETATM    9  C7  UNL     1     -34.846   5.024   4.826  1.00 20.00     0.016 A 
HETATM   10  C9  UNL     1     -34.013   3.892   4.302  1.00 20.00     0.008 A 
BRANCH  10  11
HETATM   11  C10 UNL     1     -32.584   3.765   4.709  1.00 20.00     0.119 C 
HETATM   12 CL12 UNL     1     -32.438   3.038   6.333  1.00 20.00    -0.130 Cl
ENDBRANCH  10  11
ENDBRANCH   5   8
TORSDOF 2
