REMARK  2 active torsions:
REMARK  status: ('A' for Active; 'I' for Inactive)
REMARK    1  A    between atoms: C3_3  and  C9_9 
REMARK    2  A    between atoms: C4_4  and  C10_10 
ROOT
HETATM    1  C1  UNL     1     -34.039   6.106   3.209  1.00 20.00     0.131 C 
HETATM    2  C2  UNL     1     -33.079   5.804   2.044  1.00 20.00     0.084 C 
HETATM    3  C3  UNL     1     -34.009   7.625   2.916  1.00 20.00     0.060 C 
HETATM    4  C4  UNL     1     -33.347   7.250   1.544  1.00 20.00     0.011 C 
HETATM    5  O11 UNL     1     -34.596   5.418   4.037  1.00 20.00    -0.298 OA
ENDROOT
BRANCH   4   6
HETATM    6  C10 UNL     1     -32.125   8.022   1.079  1.00 20.00    -0.047 C 
HETATM    7  C6  UNL     1     -32.512   9.476   0.748  1.00 20.00     0.015 C 
HETATM    8  C7  UNL     1     -31.532   7.364  -0.182  1.00 20.00     0.015 C 
HETATM    9  C8  UNL     1     -31.053   8.031   2.186  1.00 20.00     0.015 C 
ENDBRANCH   4   6
BRANCH   3  10
HETATM   10  C9  UNL     1     -33.232   8.444   3.931  1.00 20.00     0.008 C 
HETATM   11  C5  UNL     1     -33.897   8.453   5.272  1.00 20.00     0.006 C 
ENDBRANCH   3  10
TORSDOF 2
