REMARK  1 active torsions:
REMARK  status: ('A' for Active; 'I' for Inactive)
REMARK    1  A    between atoms: C6_6  and  C8_8 
ROOT
HETATM    1  C1  UNL     1     -33.003   7.051   1.358  1.00 20.00     0.011 C 
HETATM    2  C2  UNL     1     -33.198   6.022   2.472  1.00 20.00     0.011 C 
HETATM    3  C3  UNL     1     -35.412   6.645   3.691  1.00 20.00     0.017 A 
HETATM    4  C4  UNL     1     -32.177   8.254   1.795  1.00 20.00     0.074 C 
HETATM    5  C5  UNL     1     -33.149   7.763   4.321  1.00 20.00     0.083 C 
HETATM    6  C6  UNL     1     -34.679   5.716   4.619  1.00 20.00     0.009 A 
HETATM    7  C7  UNL     1     -33.896   6.622   3.676  1.00 20.00    -0.027 A 
HETATM    8  S9  UNL     1     -32.972   9.145   3.165  1.00 20.00    -0.168 SA
ENDROOT
BRANCH   6   9
HETATM    9  C8  UNL     1     -34.776   4.240   4.437  1.00 20.00     0.120 C 
HETATM   10 CL10 UNL     1     -33.418   3.399   5.233  1.00 20.00    -0.130 Cl
ENDBRANCH   6   9
TORSDOF 1
