REMARK  2 active torsions:
REMARK  status: ('A' for Active; 'I' for Inactive)
REMARK    1  A    between atoms: C5_5  and  C6_6 
REMARK    2  A    between atoms: C7_7  and  C8_8 
ROOT
HETATM    1  C4  UNL     1     -31.689   5.983   1.520  1.00 20.00     0.011 A 
HETATM    2  C6  UNL     1     -33.008   6.575   1.925  1.00 20.00    -0.005 A 
HETATM    3  C7  UNL     1     -31.829   7.473   1.686  1.00 20.00     0.000 A 
ENDROOT
BRANCH   2   4
HETATM    4  C5  UNL     1     -33.612   6.368   3.298  1.00 20.00    -0.010 C 
HETATM    5  C2  UNL     1     -34.762   5.333   3.403  1.00 20.00     0.005 C 
HETATM    6  C1  UNL     1     -35.414   6.273   4.439  1.00 20.00     0.001 C 
HETATM    7  C3  UNL     1     -34.639   7.428   3.772  1.00 20.00     0.005 C 
ENDBRANCH   2   4
BRANCH   3   8
HETATM    8  C8  UNL     1     -31.804   8.365   0.494  1.00 20.00     0.090 C 
HETATM    9 BR9  UNL     1     -32.658  10.073   0.901  1.00 20.00    -0.096 Br
ENDBRANCH   3   8
TORSDOF 2
