REMARK  2 active torsions:
REMARK  status: ('A' for Active; 'I' for Inactive)
REMARK    1  A    between atoms: C2_2  and  C6_6 
REMARK    2  A    between atoms: C7_7  and  C10_10 
ROOT
HETATM    1  C1  UNL     1     -32.863   9.325   2.021  1.00 20.00     0.022 A 
HETATM    2  C2  UNL     1     -32.693   8.006   2.530  1.00 20.00    -0.040 A 
HETATM    3  C3  UNL     1     -32.384   9.450   0.736  1.00 20.00    -0.020 A 
HETATM    4  C4  UNL     1     -32.089   7.172   1.614  1.00 20.00    -0.014 A 
HETATM    5  C8  UNL     1     -32.375  10.649  -0.131  1.00 20.00     0.056 C 
HETATM    6  C9  UNL     1     -31.738   5.740   1.751  1.00 20.00     0.057 C 
HETATM    7  S11 UNL     1     -31.731   7.980   0.148  1.00 20.00    -0.100 SA
ENDROOT
BRANCH   2   8
HETATM    8  C6  UNL     1     -33.126   7.582   3.914  1.00 20.00     0.025 A 
HETATM    9  C5  UNL     1     -34.228   8.332   4.631  1.00 20.00     0.016 A 
HETATM   10  C7  UNL     1     -34.485   6.946   4.119  1.00 20.00     0.004 A 
BRANCH  10  11
HETATM   11  C10 UNL     1     -34.644   5.812   5.072  1.00 20.00     0.090 C 
HETATM   12 BR12 UNL     1     -34.383   4.108   4.157  1.00 20.00    -0.096 Br
ENDBRANCH  10  11
ENDBRANCH   2   8
TORSDOF 2
