REMARK  1 active torsions:
REMARK  status: ('A' for Active; 'I' for Inactive)
REMARK    1  A    between atoms: C5_5  and  C7_7 
ROOT
HETATM    1  C1  UNL     1     -33.429   7.506   4.044  1.00 20.00     0.038 C 
HETATM    2  C2  UNL     1     -35.626   6.113   4.001  1.00 20.00     0.018 A 
HETATM    3  C3  UNL     1     -32.247   7.493   3.092  1.00 20.00     0.168 C 
HETATM    4  C4  UNL     1     -33.668   5.871   2.286  1.00 20.00     0.177 C 
HETATM    5  C5  UNL     1     -34.599   5.254   4.682  1.00 20.00     0.007 A 
HETATM    6  C6  UNL     1     -34.165   6.269   3.642  1.00 20.00    -0.012 A 
HETATM    7  O8  UNL     1     -32.758   6.911   1.882  1.00 20.00    -0.390 OA
ENDROOT
BRANCH   5   8
HETATM    8  C7  UNL     1     -34.572   3.787   4.422  1.00 20.00     0.090 C 
HETATM    9 BR9  UNL     1     -32.816   3.051   4.850  1.00 20.00    -0.096 Br
ENDBRANCH   5   8
TORSDOF 1
