REMARK  3 active torsions:
REMARK  status: ('A' for Active; 'I' for Inactive)
REMARK    1  A    between atoms: C4_4  and  C9_9 
REMARK    2  A    between atoms: C5_5  and  C6_6 
REMARK    3  A    between atoms: C9_9  and  O10_10 
ROOT
HETATM    1  C3  UNL     1     -31.519   7.451   1.950  1.00 20.00     0.018 A 
HETATM    2  C4  UNL     1     -32.717   7.897   1.161  1.00 20.00     0.019 A 
HETATM    3  C6  UNL     1     -32.901   6.968   2.360  1.00 20.00    -0.031 A 
HETATM    4  C8  UNL     1     -33.236   5.532   2.035  1.00 20.00     0.016 C 
ENDROOT
BRANCH   3   5
HETATM    5  C5  UNL     1     -33.529   7.452   3.674  1.00 20.00    -0.036 A 
HETATM    6  C1  UNL     1     -34.838   8.206   3.660  1.00 20.00     0.011 A 
HETATM    7  C2  UNL     1     -34.789   6.805   4.199  1.00 20.00     0.011 A 
HETATM    8  C7  UNL     1     -32.516   7.884   4.705  1.00 20.00     0.016 C 
ENDBRANCH   3   5
BRANCH   2   9
HETATM    9  C9  UNL     1     -33.147   9.323   1.192  1.00 20.00     0.169 C 
BRANCH   9  10
HETATM   10  O10 UNL     1     -32.326  10.098   0.319  1.00 20.00    -0.400 OA
HETATM   11  H26 UNL     1     -32.647  11.010   0.379  1.00 20.00     0.209 HD
ENDBRANCH   9  10
ENDBRANCH   2   9
TORSDOF 3
