REMARK  3 active torsions:
REMARK  status: ('A' for Active; 'I' for Inactive)
REMARK    1  A    between atoms: C2_2  and  C10_10 
REMARK    2  A    between atoms: C3_3  and  C9_9 
REMARK    3  A    between atoms: C4_4  and  O11_11 
ROOT
HETATM    1  C1  UNL     1     -33.757   6.948   4.075  1.00 20.00     0.038 C 
HETATM    2  C2  UNL     1     -32.886   5.999   3.220  1.00 20.00     0.002 C 
HETATM    3  C3  UNL     1     -34.016   4.936   3.343  1.00 20.00     0.019 C 
HETATM    4  C4  UNL     1     -34.988   6.089   3.719  1.00 20.00     0.123 C 
ENDROOT
BRANCH   2   5
HETATM    5  C10 UNL     1     -32.583   6.476   1.807  1.00 20.00    -0.047 C 
HETATM    6  C6  UNL     1     -31.905   5.350   1.000  1.00 20.00     0.015 C 
HETATM    7  C7  UNL     1     -31.639   7.694   1.849  1.00 20.00     0.015 C 
HETATM    8  C8  UNL     1     -33.887   6.882   1.092  1.00 20.00     0.015 C 
ENDBRANCH   2   5
BRANCH   3   9
HETATM    9  C9  UNL     1     -33.774   3.859   4.392  1.00 20.00     0.003 C 
HETATM   10  C5  UNL     1     -32.665   2.932   4.001  1.00 20.00     0.005 C 
ENDBRANCH   3   9
BRANCH   4  11
HETATM   11  O11 UNL     1     -35.914   5.839   4.790  1.00 20.00    -0.395 OA
HETATM   12  H31 UNL     1     -36.222   6.709   5.076  1.00 20.00     0.210 HD
ENDBRANCH   4  11
TORSDOF 3
