REMARK  1 active torsions:
REMARK  status: ('A' for Active; 'I' for Inactive)
REMARK    1  A    between atoms: C5_5  and  C10_10 
ROOT
HETATM    1  C1  UNL     1     -34.123   5.394   3.257  1.00 20.00     0.019 C 
HETATM    2  C2  UNL     1     -31.356   7.615   1.896  1.00 20.00     0.017 A 
HETATM    3  C3  UNL     1     -35.071   6.160   4.179  1.00 20.00     0.075 C 
HETATM    4  C4  UNL     1     -32.853   7.757   3.943  1.00 20.00     0.084 C 
HETATM    5  C5  UNL     1     -32.426   8.592   1.528  1.00 20.00     0.006 A 
HETATM    6  C6  UNL     1     -32.762   7.413   2.461  1.00 20.00    -0.020 A 
HETATM    7  C7  UNL     1     -33.627   6.184   2.004  1.00 20.00    -0.038 C 
HETATM    8  C8  UNL     1     -34.865   6.613   1.187  1.00 20.00     0.015 C 
HETATM    9  C9  UNL     1     -32.822   5.172   1.159  1.00 20.00     0.015 C 
HETATM   10  S11 UNL     1     -34.555   7.866   4.516  1.00 20.00    -0.168 SA
ENDROOT
BRANCH   5  11
HETATM   11  C10 UNL     1     -32.786   8.734   0.092  1.00 20.00     0.090 C 
HETATM   12 BR12 UNL     1     -31.521   9.910  -0.821  1.00 20.00    -0.096 Br
ENDBRANCH   5  11
TORSDOF 1
