REMARK  2 active torsions:
REMARK  status: ('A' for Active; 'I' for Inactive)
REMARK    1  A    between atoms: C5_5  and  C6_6 
REMARK    2  A    between atoms: C7_7  and  C8_8 
ROOT
HETATM    1  C4  UNL     1     -32.493   6.530   1.695  1.00 20.00     0.011 A 
HETATM    2  C6  UNL     1     -33.033   7.889   1.356  1.00 20.00    -0.005 A 
HETATM    3  C7  UNL     1     -32.974   7.446   2.790  1.00 20.00     0.004 A 
ENDROOT
BRANCH   2   4
HETATM    4  C5  UNL     1     -32.160   9.007   0.806  1.00 20.00    -0.010 C 
HETATM    5  C2  UNL     1     -32.866  10.365   0.568  1.00 20.00     0.005 C 
HETATM    6  C1  UNL     1     -33.062   9.946  -0.902  1.00 20.00     0.001 C 
HETATM    7  C3  UNL     1     -31.886   8.967  -0.718  1.00 20.00     0.005 C 
ENDBRANCH   2   4
BRANCH   3   8
HETATM    8  C8  UNL     1     -34.231   7.140   3.526  1.00 20.00     0.119 C 
HETATM    9 CL9  UNL     1     -34.383   5.390   3.849  1.00 20.00    -0.130 Cl
ENDBRANCH   3   8
TORSDOF 2
