REMARK  2 active torsions:
REMARK  status: ('A' for Active; 'I' for Inactive)
REMARK    1  A    between atoms: C3_3  and  C7_7 
REMARK    2  A    between atoms: C4_4  and  O8_8 
ROOT
HETATM    1  C1  UNL     1     -34.973   6.215   4.047  1.00 20.00     0.037 C 
HETATM    2  C2  UNL     1     -34.462   7.675   4.018  1.00 20.00    -0.010 C 
HETATM    3  C3  UNL     1     -33.654   7.317   2.735  1.00 20.00     0.018 C 
HETATM    4  C4  UNL     1     -33.846   5.815   3.072  1.00 20.00     0.122 C 
HETATM    5  C5  UNL     1     -33.721   8.127   5.267  1.00 20.00     0.010 C 
ENDROOT
BRANCH   3   6
HETATM    6  C7  UNL     1     -32.237   7.840   2.579  1.00 20.00     0.003 C 
HETATM    7  C6  UNL     1     -31.559   7.261   1.379  1.00 20.00     0.005 C 
ENDBRANCH   3   6
BRANCH   4   8
HETATM    8  O8  UNL     1     -32.729   5.107   3.644  1.00 20.00    -0.395 OA
HETATM    9  H22 UNL     1     -33.096   4.298   4.024  1.00 20.00     0.210 HD
ENDBRANCH   4   8
TORSDOF 2
