REMARK  0 active torsions:
REMARK  status: ('A' for Active; 'I' for Inactive)
ROOT
HETATM    1  C1  UNL     1     -32.084   8.368   1.036  1.00 20.00     0.006 C 
HETATM    2  C2  UNL     1     -33.543   7.960   1.307  1.00 20.00     0.038 C 
HETATM    3  C3  UNL     1     -31.666   6.971   1.529  1.00 20.00     0.038 C 
HETATM    4  C4  UNL     1     -35.235   6.699   3.911  1.00 20.00     0.046 C 
HETATM    5  C5  UNL     1     -33.657   5.529   2.304  1.00 20.00     0.058 C 
HETATM    6  C6  UNL     1     -34.114   7.618   4.395  1.00 20.00     0.170 C 
HETATM    7  C7  UNL     1     -34.704   5.358   3.414  1.00 20.00     0.087 C 
HETATM    8  C8  UNL     1     -32.998   6.914   2.335  1.00 20.00     0.062 C 
HETATM    9  O9  UNL     1     -32.889   7.386   3.701  1.00 20.00    -0.380 OA
HETATM   10 CL10 UNL     1     -34.000   4.436   4.788  1.00 20.00    -0.125 Cl
ENDROOT
TORSDOF 0
