REMARK  3 active torsions:
REMARK  status: ('A' for Active; 'I' for Inactive)
REMARK    1  A    between atoms: C1_1  and  C6_6 
REMARK    2  A    between atoms: C6_6  and  C7_7 
REMARK    3  A    between atoms: C7_7  and  C8_8 
ROOT
HETATM    1  C2  UNL     1     -31.729   7.986   3.112  1.00 20.00     0.014 C 
HETATM    2  C7  UNL     1     -32.874   8.191   2.103  1.00 20.00     0.034 C 
ENDROOT
BRANCH   2   3
HETATM    3  C6  UNL     1     -33.602   6.849   1.885  1.00 20.00     0.275 C 
HETATM    4  F11 UNL     1     -32.750   5.970   1.288  1.00 20.00    -0.237 F 
BRANCH   3   5
HETATM    5  C1  UNL     1     -34.136   6.143   3.139  1.00 20.00     0.208 C 
HETATM    6  O9  UNL     1     -34.529   6.902   4.068  1.00 20.00    -0.646 OA
HETATM    7  O10 UNL     1     -34.094   4.880   3.102  1.00 20.00    -0.646 OA
ENDBRANCH   3   5
ENDBRANCH   2   3
BRANCH   2   8
HETATM    8  C8  UNL     1     -32.406   8.878   0.762  1.00 20.00    -0.045 C 
HETATM    9  C3  UNL     1     -33.093  10.252   0.590  1.00 20.00     0.015 C 
HETATM   10  C4  UNL     1     -30.883   9.139   0.803  1.00 20.00     0.015 C 
HETATM   11  C5  UNL     1     -32.713   8.031  -0.487  1.00 20.00     0.015 C 
ENDBRANCH   2   8
TORSDOF 3
