REMARK  2 active torsions:
REMARK  status: ('A' for Active; 'I' for Inactive)
REMARK    1  A    between atoms: C6_6  and  C7_7 
REMARK    2  A    between atoms: C8_8  and  C9_9 
ROOT
HETATM    1  C1  UNL     1     -32.954   4.955   3.909  1.00 20.00     0.031 C 
HETATM    2  C2  UNL     1     -33.665   7.351   3.669  1.00 20.00     0.031 C 
HETATM    3  C4  UNL     1     -34.423   4.616   4.136  1.00 20.00     0.168 C 
HETATM    4  C5  UNL     1     -35.093   6.877   3.911  1.00 20.00     0.168 C 
HETATM    5  C6  UNL     1     -32.778   6.241   3.091  1.00 20.00    -0.006 C 
HETATM    6  O10 UNL     1     -35.109   5.714   4.736  1.00 20.00    -0.391 OA
ENDROOT
BRANCH   5   7
HETATM    7  C7  UNL     1     -33.065   6.007   1.605  1.00 20.00    -0.005 A 
HETATM    8  C3  UNL     1     -31.991   5.456   0.716  1.00 20.00     0.011 A 
HETATM    9  C8  UNL     1     -32.467   6.874   0.532  1.00 20.00     0.004 A 
BRANCH   9  10
HETATM   10  C9  UNL     1     -31.558   8.016   0.827  1.00 20.00     0.119 C 
HETATM   11 CL11 UNL     1     -32.363   9.580   0.518  1.00 20.00    -0.130 Cl
ENDBRANCH   9  10
ENDBRANCH   5   7
TORSDOF 2
