REMARK  2 active torsions:
REMARK  status: ('A' for Active; 'I' for Inactive)
REMARK    1  A    between atoms: C4_4  and  C7_7 
REMARK    2  A    between atoms: C6_6  and  C10_10 
ROOT
HETATM    1  C1  UNL     1     -35.309   5.599   4.231  1.00 20.00     0.015 A 
HETATM    2  C2  UNL     1     -34.400   4.578   4.062  1.00 20.00     0.051 A 
HETATM    3  C3  UNL     1     -34.768   6.865   3.861  1.00 20.00    -0.048 A 
HETATM    4  C4  UNL     1     -33.465   6.763   3.424  1.00 20.00    -0.003 A 
HETATM    5  C8  UNL     1     -35.531   8.133   3.946  1.00 20.00     0.049 C 
HETATM    6  S11 UNL     1     -32.900   5.147   3.460  1.00 20.00    -0.105 SA
ENDROOT
BRANCH   4   7
HETATM    7  C7  UNL     1     -32.591   7.959   2.950  1.00 20.00    -0.005 A 
HETATM    8  C5  UNL     1     -31.533   7.655   1.900  1.00 20.00     0.021 A 
HETATM    9  C6  UNL     1     -32.781   8.380   1.493  1.00 20.00     0.010 A 
HETATM   10  C9  UNL     1     -32.277   8.982   4.004  1.00 20.00     0.021 C 
BRANCH   9  11
HETATM   11  C10 UNL     1     -32.715   9.804   1.055  1.00 20.00     0.091 C 
HETATM   12 BR12 UNL     1     -32.079   9.922  -0.786  1.00 20.00    -0.096 Br
ENDBRANCH   9  11
ENDBRANCH   4   7
TORSDOF 2
