REMARK  1 active torsions:
REMARK  status: ('A' for Active; 'I' for Inactive)
REMARK    1  A    between atoms: C1_1  and  C5_5 
ROOT
HETATM    1  C2  UNL     1     -33.196   6.030   1.986  1.00 20.00     0.013 C 
HETATM    2  C3  UNL     1     -31.954   6.705   1.410  1.00 20.00     0.009 C 
HETATM    3  C4  UNL     1     -32.318   8.685   2.930  1.00 20.00     0.013 C 
HETATM    4  C5  UNL     1     -33.486   6.487   3.418  1.00 20.00     0.059 C 
HETATM    5  C6  UNL     1     -33.570   8.020   3.532  1.00 20.00    -0.007 C 
HETATM    6  C7  UNL     1     -32.009   8.245   1.482  1.00 20.00    -0.047 C 
HETATM    7  C9  UNL     1     -33.730   8.466   4.991  1.00 20.00     0.011 C 
HETATM    8  C10 UNL     1     -30.638   8.814   1.068  1.00 20.00     0.015 C 
HETATM    9  C11 UNL     1     -33.065   8.801   0.507  1.00 20.00     0.015 C 
ENDROOT
BRANCH   4  10
HETATM   10  C1  UNL     1     -34.775   5.849   3.848  1.00 20.00     0.127 C 
HETATM   11  C8  UNL     1     -34.681   4.476   4.456  1.00 20.00     0.091 C 
HETATM   12  O12 UNL     1     -35.855   6.421   3.710  1.00 20.00    -0.298 OA
ENDBRANCH   4  10
TORSDOF 1
