REMARK  2 active torsions:
REMARK  status: ('A' for Active; 'I' for Inactive)
REMARK    1  A    between atoms: C5_5  and  C6_6 
REMARK    2  A    between atoms: C7_7  and  C8_8 
ROOT
HETATM    1  C4  UNL     1     -32.666   6.286   1.993  1.00 20.00     0.011 A 
HETATM    2  C6  UNL     1     -32.333   7.745   2.109  1.00 20.00    -0.005 A 
HETATM    3  C7  UNL     1     -33.725   7.271   2.414  1.00 20.00     0.004 A 
ENDROOT
BRANCH   2   4
HETATM    4  C5  UNL     1     -32.011   8.609   0.907  1.00 20.00    -0.010 C 
HETATM    5  C2  UNL     1     -32.643  10.025   0.879  1.00 20.00     0.005 C 
HETATM    6  C1  UNL     1     -32.803   9.842  -0.645  1.00 20.00     0.001 C 
HETATM    7  C3  UNL     1     -32.810   8.321  -0.390  1.00 20.00     0.005 C 
ENDBRANCH   2   4
BRANCH   3   8
HETATM    8  C8  UNL     1     -34.223   7.283   3.818  1.00 20.00     0.119 C 
HETATM    9 CL9  UNL     1     -35.433   5.997   4.087  1.00 20.00    -0.130 Cl
ENDBRANCH   3   8
TORSDOF 2
