REMARK  3 active torsions:
REMARK  status: ('A' for Active; 'I' for Inactive)
REMARK    1  A    between atoms: C2_2  and  C7_7 
REMARK    2  A    between atoms: C3_3  and  C9_9 
REMARK    3  A    between atoms: C8_8  and  C9_9 
ROOT
HETATM    1  C1  UNL     1     -34.176   5.627   1.463  1.00 20.00     0.016 A 
HETATM    2  C2  UNL     1     -33.615   5.792   2.846  1.00 20.00     0.009 A 
HETATM    3  C3  UNL     1     -32.788   6.222   1.635  1.00 20.00    -0.036 A 
HETATM    4  C4  UNL     1     -31.605   5.366   1.270  1.00 20.00     0.016 C 
ENDROOT
BRANCH   3   5
HETATM    5  C9  UNL     1     -32.602   7.685   1.332  1.00 20.00    -0.010 C 
HETATM    6  C6  UNL     1     -31.526   8.295   2.247  1.00 20.00     0.011 C 
BRANCH   5   7
HETATM    7  C8  UNL     1     -32.221   7.959  -0.143  1.00 20.00     0.000 C 
HETATM    8  C5  UNL     1     -32.009   9.436  -0.443  1.00 20.00     0.005 C 
ENDBRANCH   5   7
ENDBRANCH   3   5
BRANCH   2   9
HETATM    9  C7  UNL     1     -34.224   6.768   3.793  1.00 20.00     0.120 C 
HETATM   10 CL10 UNL     1     -35.701   6.103   4.545  1.00 20.00    -0.130 Cl
ENDBRANCH   2   9
TORSDOF 3
