REMARK  1 active torsions:
REMARK  status: ('A' for Active; 'I' for Inactive)
REMARK    1  A    between atoms: C6_6  and  C8_8 
ROOT
HETATM    1  C1  UNL     1     -34.741   7.617   4.138  1.00 20.00     0.027 C 
HETATM    2  C2  UNL     1     -33.245   7.751   3.865  1.00 20.00     0.014 C 
HETATM    3  C3  UNL     1     -31.573   7.388   1.915  1.00 20.00     0.018 A 
HETATM    4  C4  UNL     1     -35.181   6.163   4.001  1.00 20.00     0.167 C 
HETATM    5  C5  UNL     1     -33.431   5.668   2.474  1.00 20.00     0.177 C 
HETATM    6  C6  UNL     1     -32.835   7.879   1.258  1.00 20.00     0.011 A 
HETATM    7  C7  UNL     1     -32.911   7.083   2.552  1.00 20.00    -0.014 A 
HETATM    8  O9  UNL     1     -34.843   5.654   2.708  1.00 20.00    -0.390 OA
ENDROOT
BRANCH   6   9
HETATM    9  C8  UNL     1     -33.123   9.339   1.183  1.00 20.00     0.120 C 
HETATM   10 CL10 UNL     1     -32.212  10.111  -0.144  1.00 20.00    -0.130 Cl
ENDBRANCH   6   9
TORSDOF 1
