REMARK  3 active torsions:
REMARK  status: ('A' for Active; 'I' for Inactive)
REMARK    1  A    between atoms: C1_1  and  C9_9 
REMARK    2  A    between atoms: C5_5  and  C8_8 
REMARK    3  A    between atoms: C6_6  and  C9_9 
ROOT
HETATM    1  C2  UNL     1     -32.020   6.725   0.701  1.00 20.00     0.005 C 
HETATM    2  C3  UNL     1     -32.675   5.650   1.575  1.00 20.00     0.008 C 
HETATM    3  C4  UNL     1     -33.696   7.765   2.082  1.00 20.00     0.012 C 
HETATM    4  C5  UNL     1     -32.410   8.071   1.320  1.00 20.00    -0.014 C 
HETATM    5  C6  UNL     1     -33.395   6.401   2.698  1.00 20.00     0.030 C 
ENDROOT
BRANCH   5   6
HETATM    6  C9  UNL     1     -34.636   5.683   3.199  1.00 20.00     0.274 C 
HETATM    7  F12 UNL     1     -35.414   6.596   3.843  1.00 20.00    -0.238 F 
BRANCH   6   8
HETATM    8  C1  UNL     1     -34.397   4.556   4.200  1.00 20.00     0.208 C 
HETATM    9  O10 UNL     1     -35.265   4.415   5.105  1.00 20.00    -0.646 OA
HETATM   10  O11 UNL     1     -33.333   3.902   4.001  1.00 20.00    -0.646 OA
ENDBRANCH   6   8
ENDBRANCH   5   6
BRANCH   4  11
HETATM   11  C8  UNL     1     -32.573   9.179   0.294  1.00 20.00     0.000 C 
HETATM   12  C7  UNL     1     -32.974  10.474   0.927  1.00 20.00     0.005 C 
ENDBRANCH   4  11
TORSDOF 3
