REMARK  1 active torsions:
REMARK  status: ('A' for Active; 'I' for Inactive)
REMARK    1  A    between atoms: C5_5  and  C7_7 
ROOT
HETATM    1  C1  UNL     1     -33.142   7.913   2.925  1.00 20.00     0.002 C 
HETATM    2  C2  UNL     1     -33.323   6.411   2.644  1.00 20.00     0.010 C 
HETATM    3  C3  UNL     1     -33.394   7.614   4.413  1.00 20.00     0.010 C 
HETATM    4  C4  UNL     1     -35.525   6.067   4.087  1.00 20.00     0.016 A 
HETATM    5  C5  UNL     1     -34.471   5.204   4.738  1.00 20.00     0.005 A 
HETATM    6  C6  UNL     1     -34.072   6.390   3.922  1.00 20.00    -0.036 A 
ENDROOT
BRANCH   5   7
HETATM    7  C7  UNL     1     -34.235   3.818   4.246  1.00 20.00     0.090 C 
HETATM    8 BR8  UNL     1     -32.454   3.206   4.758  1.00 20.00    -0.096 Br
ENDBRANCH   5   7
TORSDOF 1
