REMARK  1 active torsions:
REMARK  status: ('A' for Active; 'I' for Inactive)
REMARK    1  A    between atoms: C5_5  and  C10_10 
ROOT
HETATM    1  C1  UNL     1     -33.961   7.541   3.869  1.00 20.00     0.036 C 
HETATM    2  C2  UNL     1     -35.705   5.684   4.248  1.00 20.00     0.016 A 
HETATM    3  C3  UNL     1     -34.179   5.718   2.159  1.00 20.00     0.047 C 
HETATM    4  C4  UNL     1     -32.524   7.726   3.407  1.00 20.00     0.169 C 
HETATM    5  C5  UNL     1     -34.403   5.120   4.742  1.00 20.00     0.009 A 
HETATM    6  C6  UNL     1     -34.411   6.125   3.598  1.00 20.00    -0.031 A 
HETATM    7  C7  UNL     1     -32.738   6.030   1.702  1.00 20.00     0.054 C 
HETATM    8  C8  UNL     1     -31.712   5.047   2.281  1.00 20.00     0.045 C 
HETATM    9  C9  UNL     1     -32.673   5.941   0.169  1.00 20.00     0.045 C 
HETATM   10  O11 UNL     1     -32.387   7.387   2.026  1.00 20.00    -0.381 OA
ENDROOT
BRANCH   5  11
HETATM   11  C10 UNL     1     -34.134   3.663   4.577  1.00 20.00     0.120 C 
HETATM   12 CL12 UNL     1     -32.529   3.224   5.225  1.00 20.00    -0.130 Cl
ENDBRANCH   5  11
TORSDOF 1
