REMARK  3 active torsions:
REMARK  status: ('A' for Active; 'I' for Inactive)
REMARK    1  A    between atoms: C2_2  and  C6_6 
REMARK    2  A    between atoms: C3_3  and  C7_7 
REMARK    3  A    between atoms: C6_6  and  O8_8 
ROOT
HETATM    1  C1  UNL     1     -32.790   6.825   3.962  1.00 20.00     0.017 A 
HETATM    2  C2  UNL     1     -34.125   7.268   3.435  1.00 20.00     0.018 A 
HETATM    3  C3  UNL     1     -32.924   7.191   2.493  1.00 20.00    -0.038 A 
HETATM    4  C4  UNL     1     -32.835   6.085   1.475  1.00 20.00     0.015 C 
ENDROOT
BRANCH   2   5
HETATM    5  C6  UNL     1     -35.263   6.309   3.368  1.00 20.00     0.169 C 
BRANCH   5   6
HETATM    6  O8  UNL     1     -35.857   6.170   4.659  1.00 20.00    -0.400 OA
HETATM    7  H22 UNL     1     -36.586   5.539   4.558  1.00 20.00     0.209 HD
ENDBRANCH   5   6
ENDBRANCH   2   5
BRANCH   3   8
HETATM    8  C7  UNL     1     -32.325   8.495   2.035  1.00 20.00     0.005 C 
HETATM    9  C5  UNL     1     -32.528   8.734   0.566  1.00 20.00     0.006 C 
ENDBRANCH   3   8
TORSDOF 3
