REMARK  1 active torsions:
REMARK  status: ('A' for Active; 'I' for Inactive)
REMARK    1  A    between atoms: C6_6  and  C8_8 
ROOT
HETATM    1  C1  UNL     1     -35.096   6.366   4.131  1.00 20.00     0.027 C 
HETATM    2  C2  UNL     1     -34.090   7.310   3.475  1.00 20.00     0.014 C 
HETATM    3  C3  UNL     1     -33.804   6.680   0.970  1.00 20.00     0.018 A 
HETATM    4  C4  UNL     1     -34.418   5.069   4.557  1.00 20.00     0.167 C 
HETATM    5  C5  UNL     1     -32.756   5.258   2.876  1.00 20.00     0.177 C 
HETATM    6  C6  UNL     1     -32.515   7.346   1.370  1.00 20.00     0.011 A 
HETATM    7  C7  UNL     1     -33.321   6.575   2.401  1.00 20.00    -0.014 A 
HETATM    8  O9  UNL     1     -33.792   4.445   3.435  1.00 20.00    -0.390 OA
ENDROOT
BRANCH   6   9
HETATM    9  C8  UNL     1     -32.408   8.832   1.381  1.00 20.00     0.120 C 
HETATM   10 CL10 UNL     1     -32.128   9.472  -0.262  1.00 20.00    -0.130 Cl
ENDBRANCH   6   9
TORSDOF 1
