REMARK  2 active torsions:
REMARK  status: ('A' for Active; 'I' for Inactive)
REMARK    1  A    between atoms: C4_4  and  C6_6 
REMARK    2  A    between atoms: C7_7  and  C8_8 
ROOT
HETATM    1  C1  UNL     1     -34.565   5.853   2.768  1.00 20.00     0.015 A 
HETATM    2  C2  UNL     1     -35.326   6.164   3.874  1.00 20.00     0.050 A 
HETATM    3  C3  UNL     1     -33.442   7.718   3.581  1.00 20.00     0.057 A 
HETATM    4  C4  UNL     1     -33.474   6.753   2.599  1.00 20.00    -0.047 A 
HETATM    5  S9  UNL     1     -34.724   7.537   4.701  1.00 20.00    -0.113 SA
ENDROOT
BRANCH   4   6
HETATM    6  C6  UNL     1     -32.452   6.657   1.452  1.00 20.00     0.024 A 
HETATM    7  C5  UNL     1     -31.261   7.590   1.469  1.00 20.00     0.016 A 
HETATM    8  C7  UNL     1     -32.330   7.775   0.433  1.00 20.00     0.004 A 
BRANCH   8   9
HETATM    9  C8  UNL     1     -33.200   8.985   0.463  1.00 20.00     0.090 C 
HETATM   10 BR10 UNL     1     -32.253  10.523  -0.276  1.00 20.00    -0.096 Br
ENDBRANCH   8   9
ENDBRANCH   4   6
TORSDOF 2
