REMARK  1 active torsions:
REMARK  status: ('A' for Active; 'I' for Inactive)
REMARK    1  A    between atoms: C5_5  and  C10_10 
ROOT
HETATM    1  C1  UNL     1     -32.823   6.420   1.374  1.00 20.00     0.011 C 
HETATM    2  C2  UNL     1     -33.349   5.460   2.444  1.00 20.00     0.009 C 
HETATM    3  C3  UNL     1     -31.218   8.398   1.972  1.00 20.00     0.016 A 
HETATM    4  C4  UNL     1     -33.174   7.610   3.509  1.00 20.00     0.018 C 
HETATM    5  C5  UNL     1     -32.462   9.038   1.427  1.00 20.00     0.005 A 
HETATM    6  C6  UNL     1     -32.550   7.696   2.132  1.00 20.00    -0.035 A 
HETATM    7  C7  UNL     1     -34.088   6.365   3.446  1.00 20.00    -0.047 C 
HETATM    8  C8  UNL     1     -35.487   6.740   2.932  1.00 20.00     0.015 C 
HETATM    9  C9  UNL     1     -34.216   5.691   4.814  1.00 20.00     0.015 C 
ENDROOT
BRANCH   5  10
HETATM   10  C10 UNL     1     -32.642   9.175  -0.046  1.00 20.00     0.090 C 
HETATM   11 BR11 UNL     1     -31.677  10.736  -0.709  1.00 20.00    -0.096 Br
ENDBRANCH   5  10
TORSDOF 1
