REMARK  1 active torsions:
REMARK  status: ('A' for Active; 'I' for Inactive)
REMARK    1  A    between atoms: C5_5  and  C10_10 
ROOT
HETATM    1  C1  UNL     1     -31.398   9.186   2.512  1.00 20.00     0.017 A 
HETATM    2  C2  UNL     1     -33.127   7.526   3.463  1.00 20.00     0.020 C 
HETATM    3  C3  UNL     1     -31.576   6.791   1.588  1.00 20.00     0.083 C 
HETATM    4  C4  UNL     1     -34.302   6.187   1.608  1.00 20.00     0.082 C 
HETATM    5  C5  UNL     1     -32.569   9.234   1.574  1.00 20.00     0.009 A 
HETATM    6  C6  UNL     1     -32.233   7.937   2.304  1.00 20.00    -0.026 A 
HETATM    7  C7  UNL     1     -34.110   6.369   3.129  1.00 20.00    -0.038 C 
HETATM    8  C8  UNL     1     -33.626   5.057   3.784  1.00 20.00     0.015 C 
HETATM    9  C9  UNL     1     -35.488   6.701   3.743  1.00 20.00     0.015 C 
HETATM   10  S11 UNL     1     -32.785   5.806   0.667  1.00 20.00    -0.168 SA
ENDROOT
BRANCH   5  11
HETATM   11  C10 UNL     1     -32.343   9.438   0.115  1.00 20.00     0.120 C 
HETATM   12 CL12 UNL     1     -32.072  11.161  -0.264  1.00 20.00    -0.130 Cl
ENDBRANCH   5  11
TORSDOF 1
