REMARK  3 active torsions:
REMARK  status: ('A' for Active; 'I' for Inactive)
REMARK    1  A    between atoms: C2_2  and  C5_5 
REMARK    2  A    between atoms: C3_3  and  C6_6 
REMARK    3  A    between atoms: C5_5  and  C7_7 
ROOT
HETATM    1  C1  UNL     1     -32.793   6.586   1.332  1.00 20.00     0.011 A 
HETATM    2  C2  UNL     1     -32.944   8.041   0.974  1.00 20.00    -0.009 A 
HETATM    3  C3  UNL     1     -32.714   7.638   2.407  1.00 20.00     0.004 A 
ENDROOT
BRANCH   2   4
HETATM    4  C5  UNL     1     -31.871   8.740   0.213  1.00 20.00     0.005 C 
BRANCH   4   5
HETATM    5  C7  UNL     1     -32.383   9.999  -0.508  1.00 20.00    -0.004 C 
HETATM    6  C4  UNL     1     -32.993  11.012   0.447  1.00 20.00     0.005 C 
ENDBRANCH   4   5
ENDBRANCH   2   4
BRANCH   3   7
HETATM    7  C6  UNL     1     -33.811   7.771   3.406  1.00 20.00     0.119 C 
HETATM    8 CL8  UNL     1     -34.417   6.172   3.919  1.00 20.00    -0.130 Cl
ENDBRANCH   3   7
TORSDOF 3
