REMARK  1 active torsions:
REMARK  status: ('A' for Active; 'I' for Inactive)
REMARK    1  A    between atoms: C5_5  and  C10_10 
ROOT
HETATM    1  C1  UNL     1     -32.256   7.398   3.198  1.00 20.00     0.019 C 
HETATM    2  C2  UNL     1     -35.676   5.782   4.317  1.00 20.00     0.018 A 
HETATM    3  C3  UNL     1     -32.067   6.928   1.760  1.00 20.00     0.075 C 
HETATM    4  C4  UNL     1     -34.405   5.549   2.105  1.00 20.00     0.084 C 
HETATM    5  C5  UNL     1     -34.401   5.082   4.694  1.00 20.00     0.010 A 
HETATM    6  C6  UNL     1     -34.409   6.080   3.529  1.00 20.00    -0.020 A 
HETATM    7  C7  UNL     1     -33.725   7.473   3.698  1.00 20.00    -0.038 C 
HETATM    8  C8  UNL     1     -34.515   8.548   2.917  1.00 20.00     0.015 C 
HETATM    9  C9  UNL     1     -33.657   7.968   5.165  1.00 20.00     0.015 C 
HETATM   10  S11 UNL     1     -32.723   5.257   1.521  1.00 20.00    -0.168 SA
ENDROOT
BRANCH   5  11
HETATM   11  C10 UNL     1     -34.282   3.607   4.515  1.00 20.00     0.120 C 
HETATM   12 CL12 UNL     1     -32.571   3.100   4.460  1.00 20.00    -0.130 Cl
ENDBRANCH   5  11
TORSDOF 1
