REMARK  1 active torsions:
REMARK  status: ('A' for Active; 'I' for Inactive)
REMARK    1  A    between atoms: C6_6  and  C8_8 
ROOT
HETATM    1  C1  UNL     1     -33.114   7.664   3.658  1.00 20.00     0.036 C 
HETATM    2  C2  UNL     1     -33.129   5.720   2.076  1.00 20.00     0.036 C 
HETATM    3  C3  UNL     1     -31.427   7.642   1.683  1.00 20.00     0.016 A 
HETATM    4  C4  UNL     1     -34.595   7.391   3.900  1.00 20.00     0.168 C 
HETATM    5  C5  UNL     1     -34.610   5.553   2.405  1.00 20.00     0.168 C 
HETATM    6  C6  UNL     1     -32.731   8.084   1.074  1.00 20.00     0.005 A 
HETATM    7  C7  UNL     1     -32.729   7.163   2.284  1.00 20.00    -0.032 A 
HETATM    8  O9  UNL     1     -34.878   5.997   3.739  1.00 20.00    -0.391 OA
ENDROOT
BRANCH   6   9
HETATM    9  C8  UNL     1     -33.146   9.513   1.144  1.00 20.00     0.090 C 
HETATM   10 BR10 UNL     1     -32.196  10.566  -0.197  1.00 20.00    -0.096 Br
ENDBRANCH   6   9
TORSDOF 1
