REMARK  3 active torsions:
REMARK  status: ('A' for Active; 'I' for Inactive)
REMARK    1  A    between atoms: C2_2  and  C6_6 
REMARK    2  A    between atoms: C3_3  and  C7_7 
REMARK    3  A    between atoms: C6_6  and  O8_8 
ROOT
HETATM    1  C1  UNL     1     -35.258   6.063   3.959  1.00 20.00     0.017 A 
HETATM    2  C2  UNL     1     -34.076   5.326   4.522  1.00 20.00     0.018 A 
HETATM    3  C3  UNL     1     -33.853   6.520   3.603  1.00 20.00    -0.038 A 
HETATM    4  C4  UNL     1     -33.343   7.789   4.236  1.00 20.00     0.015 C 
ENDROOT
BRANCH   2   5
HETATM    5  C6  UNL     1     -33.793   3.925   4.101  1.00 20.00     0.169 C 
BRANCH   5   6
HETATM    6  O8  UNL     1     -32.427   3.605   4.365  1.00 20.00    -0.400 OA
HETATM    7  H22 UNL     1     -32.300   2.689   4.075  1.00 20.00     0.209 HD
ENDBRANCH   5   6
ENDBRANCH   2   5
BRANCH   3   8
HETATM    8  C7  UNL     1     -33.376   6.307   2.191  1.00 20.00     0.005 C 
HETATM    9  C5  UNL     1     -31.976   6.804   1.977  1.00 20.00     0.006 C 
ENDBRANCH   3   8
TORSDOF 3
