REMARK  1 active torsions:
REMARK  status: ('A' for Active; 'I' for Inactive)
REMARK    1  A    between atoms: C4_4  and  C8_8 
ROOT
HETATM    1  C1  UNL     1     -31.427   7.537   1.374  1.00 20.00     0.017 A 
HETATM    2  C2  UNL     1     -33.395   6.251   2.460  1.00 20.00     0.025 C 
HETATM    3  C3  UNL     1     -32.749   8.490   3.393  1.00 20.00     0.084 C 
HETATM    4  C4  UNL     1     -32.678   8.113   0.781  1.00 20.00     0.009 A 
HETATM    5  C5  UNL     1     -34.586   6.525   3.369  1.00 20.00     0.044 C 
HETATM    6  C6  UNL     1     -32.695   7.565   2.202  1.00 20.00    -0.026 A 
HETATM    7  C7  UNL     1     -35.781   7.107   2.622  1.00 20.00     0.021 C 
HETATM    8  S9  UNL     1     -33.929   7.732   4.552  1.00 20.00    -0.164 SA
ENDROOT
BRANCH   4   9
HETATM    9  C8  UNL     1     -32.746   9.570   0.472  1.00 20.00     0.120 C 
HETATM   10 CL10 UNL     1     -31.919   9.944  -1.065  1.00 20.00    -0.130 Cl
ENDBRANCH   4   9
TORSDOF 1
