REMARK  3 active torsions:
REMARK  status: ('A' for Active; 'I' for Inactive)
REMARK    1  A    between atoms: C2_2  and  C7_7 
REMARK    2  A    between atoms: C3_3  and  C9_9 
REMARK    3  A    between atoms: C8_8  and  C9_9 
ROOT
HETATM    1  C1  UNL     1     -35.058   5.283   5.515  1.00 20.00     0.016 A 
HETATM    2  C2  UNL     1     -34.718   4.450   4.312  1.00 20.00     0.009 A 
HETATM    3  C3  UNL     1     -34.970   5.948   4.151  1.00 20.00    -0.036 A 
HETATM    4  C4  UNL     1     -36.256   6.361   3.485  1.00 20.00     0.016 C 
ENDROOT
BRANCH   3   5
HETATM    5  C9  UNL     1     -33.819   6.882   3.891  1.00 20.00    -0.010 C 
HETATM    6  C6  UNL     1     -34.167   8.311   4.343  1.00 20.00     0.011 C 
BRANCH   5   7
HETATM    7  C8  UNL     1     -33.388   6.926   2.405  1.00 20.00     0.000 C 
HETATM    8  C5  UNL     1     -32.242   7.892   2.141  1.00 20.00     0.005 C 
ENDBRANCH   5   7
ENDBRANCH   3   5
BRANCH   2   9
HETATM    9  C7  UNL     1     -33.364   3.843   4.177  1.00 20.00     0.120 C 
HETATM   10 CL10 UNL     1     -33.219   2.360   5.161  1.00 20.00    -0.130 Cl
ENDBRANCH   2   9
TORSDOF 3
