REMARK  2 active torsions:
REMARK  status: ('A' for Active; 'I' for Inactive)
REMARK    1  A    between atoms: C4_4  and  C6_6 
REMARK    2  A    between atoms: C7_7  and  C8_8 
ROOT
HETATM    1  C1  UNL     1     -33.411   8.145   3.817  1.00 20.00     0.034 A 
HETATM    2  C2  UNL     1     -34.462   7.611   4.526  1.00 20.00     0.142 A 
HETATM    3  C3  UNL     1     -34.028   6.194   2.928  1.00 20.00     0.148 A 
HETATM    4  C4  UNL     1     -33.129   7.224   2.779  1.00 20.00    -0.029 A 
HETATM    5  O9  UNL     1     -34.843   6.422   3.991  1.00 20.00    -0.334 OA
ENDROOT
BRANCH   4   6
HETATM    6  C6  UNL     1     -32.040   7.349   1.700  1.00 20.00     0.026 A 
HETATM    7  C5  UNL     1     -31.060   8.498   1.793  1.00 20.00     0.016 A 
HETATM    8  C7  UNL     1     -32.078   8.483   0.692  1.00 20.00     0.005 A 
BRANCH   8   9
HETATM    9  C8  UNL     1     -33.171   9.497   0.670  1.00 20.00     0.090 C 
HETATM   10 BR10 UNL     1     -32.503  11.202  -0.006  1.00 20.00    -0.096 Br
ENDBRANCH   8   9
ENDBRANCH   4   6
TORSDOF 2
