REMARK  1 active torsions:
REMARK  status: ('A' for Active; 'I' for Inactive)
REMARK    1  A    between atoms: C3_3  and  O10_10 
ROOT
HETATM    1  C1  UNL     1     -33.647   5.826   3.346  1.00 20.00     0.143 C 
HETATM    2  C2  UNL     1     -33.374   7.278   3.774  1.00 20.00     0.082 C 
HETATM    3  C3  UNL     1     -32.777   7.523   2.354  1.00 20.00     0.146 C 
HETATM    4  C4  UNL     1     -33.201   6.086   1.882  1.00 20.00     0.040 C 
HETATM    5  C5  UNL     1     -34.606   8.066   4.180  1.00 20.00     0.020 C 
HETATM    6  C6  UNL     1     -34.355   6.018   0.885  1.00 20.00     0.026 C 
HETATM    7  C7  UNL     1     -32.025   5.218   1.439  1.00 20.00     0.026 C 
HETATM    8  O9  UNL     1     -34.066   4.849   3.934  1.00 20.00    -0.297 OA
ENDROOT
BRANCH   3   9
HETATM    9  O10 UNL     1     -33.326   8.632   1.614  1.00 20.00    -0.389 OA
HETATM   10  C8  UNL     1     -32.441   9.037   0.588  1.00 20.00     0.202 C 
ENDBRANCH   3   9
TORSDOF 1
