REMARK  0 active torsions:
REMARK  status: ('A' for Active; 'I' for Inactive)
ROOT
HETATM    1  C1  UNL     1     -33.696   4.013   4.193  1.00 20.00     0.068 C 
HETATM    2  C2  UNL     1     -32.565   5.485   1.472  1.00 20.00     0.010 A 
HETATM    3  C3  UNL     1     -31.768   6.516   0.968  1.00 20.00     0.019 A 
HETATM    4  C4  UNL     1     -32.763   8.105   2.518  1.00 20.00     0.026 A 
HETATM    5  C5  UNL     1     -33.457   5.780   2.491  1.00 20.00    -0.034 A 
HETATM    6  C6  UNL     1     -33.558   7.080   3.004  1.00 20.00    -0.049 A 
HETATM    7  C7  UNL     1     -31.866   7.816   1.488  1.00 20.00     0.011 A 
HETATM    8  C8  UNL     1     -34.557   7.141   4.115  1.00 20.00     0.041 C 
HETATM    9  C9  UNL     1     -35.354   5.847   3.871  1.00 20.00     0.028 C 
HETATM   10  C10 UNL     1     -34.391   4.843   3.201  1.00 20.00     0.126 C 
HETATM   11  N11 UNL     1     -33.147   3.358   4.977  1.00 20.00    -0.197 NA
HETATM   12 BR12 UNL     1     -30.766   9.187   0.790  1.00 20.00    -0.051 Br
ENDROOT
TORSDOF 0
