REMARK  1 active torsions:
REMARK  status: ('A' for Active; 'I' for Inactive)
REMARK       I    between atoms: C1_1  and  N5_5 
REMARK    1  A    between atoms: C4_4  and  N5_5 
ROOT
HETATM    1  C1  UNL     1     -33.905   6.697   3.359  1.00 20.00     0.314 C 
HETATM    2  N5  UNL     1     -33.137   6.107   2.357  1.00 20.00    -0.343 N 
HETATM    3  O6  UNL     1     -33.833   7.891   3.645  1.00 20.00    -0.254 OA
HETATM    4 CL7  UNL     1     -34.964   5.555   4.147  1.00 20.00    -0.020 Cl
HETATM    5  H13 UNL     1     -33.257   5.107   2.182  1.00 20.00     0.164 HD
ENDROOT
BRANCH   2   6
HETATM    6  C4  UNL     1     -32.197   6.819   1.567  1.00 20.00     0.085 A 
HETATM    7  C2  UNL     1     -32.451   8.240   1.146  1.00 20.00     0.027 A 
HETATM    8  C3  UNL     1     -31.377   7.938   2.149  1.00 20.00     0.027 A 
ENDBRANCH   2   6
TORSDOF 1
