REMARK  1 active torsions:
REMARK  status: ('A' for Active; 'I' for Inactive)
REMARK    1  A    between atoms: C1_1  and  C5_5 
ROOT
HETATM    1  C1  UNL     1     -34.265   5.191   4.031  1.00 20.00    -0.089 C 
HETATM    2  C2  UNL     1     -33.829   4.096   4.258  1.00 20.00    -0.023 C 
HETATM    3 BR6  UNL     1     -33.138   2.362   4.616  1.00 20.00     0.010 Br
ENDROOT
BRANCH   1   4
HETATM    4  C5  UNL     1     -34.787   6.497   3.761  1.00 20.00     0.066 A 
HETATM    5  C3  UNL     1     -33.831   7.596   3.382  1.00 20.00     0.018 A 
HETATM    6  C4  UNL     1     -34.491   7.612   4.728  1.00 20.00     0.018 A 
ENDBRANCH   1   4
TORSDOF 1
