REMARK  0 active torsions:
REMARK  status: ('A' for Active; 'I' for Inactive)
ROOT
HETATM    1  C1  UNL     1     -34.579   8.017   3.664  1.00 20.00     0.007 C 
HETATM    2  C2  UNL     1     -34.483   7.197   2.369  1.00 20.00     0.027 C 
HETATM    3  C3  UNL     1     -32.239   8.842   3.361  1.00 20.00     0.027 C 
HETATM    4  C4  UNL     1     -32.715   6.536   3.811  1.00 20.00     0.032 C 
HETATM    5  C5  UNL     1     -33.148   7.945   4.226  1.00 20.00    -0.011 C 
HETATM    6  C6  UNL     1     -32.067   8.012   2.076  1.00 20.00     0.106 C 
HETATM    7  C7  UNL     1     -32.993   6.802   2.328  1.00 20.00     0.054 C 
HETATM    8 CL8  UNL     1     -32.439   8.937   0.609  1.00 20.00    -0.123 Cl
HETATM    9 CL9  UNL     1     -32.669   5.434   1.274  1.00 20.00    -0.118 Cl
ENDROOT
TORSDOF 0
