REMARK  2 active torsions:
REMARK  status: ('A' for Active; 'I' for Inactive)
REMARK    1  A    between atoms: C1_1  and  C3_3 
REMARK    2  A    between atoms: C2_2  and  C5_5 
ROOT
HETATM    1  C1  UNL     1     -32.634   8.778   2.124  1.00 20.00     0.005 C 
HETATM    2  C2  UNL     1     -32.809   7.812   3.036  1.00 20.00     0.068 C 
ENDROOT
BRANCH   1   3
HETATM    3  C3  UNL     1     -33.139   8.676   0.773  1.00 20.00    -0.004 C 
HETATM    4  C4  UNL     1     -32.970   9.636  -0.148  1.00 20.00    -0.031 C 
HETATM    5  C6  UNL     1     -32.246  10.915   0.112  1.00 20.00     0.036 C 
ENDBRANCH   1   3
BRANCH   2   6
HETATM    6  C5  UNL     1     -33.548   6.559   2.694  1.00 20.00     0.241 C 
HETATM    7  O7  UNL     1     -33.148   5.823   1.795  1.00 20.00    -0.275 OA
HETATM    8 CL8  UNL     1     -34.981   6.242   3.650  1.00 20.00    -0.039 Cl
ENDBRANCH   2   6
TORSDOF 2
