REMARK  1 active torsions:
REMARK  status: ('A' for Active; 'I' for Inactive)
REMARK    1  A    between atoms: C8_8  and  C11_11 
ROOT
HETATM    1  C1  UNL     1     -34.300   7.437   4.374  1.00 20.00    -0.076 C 
HETATM    2  C2  UNL     1     -32.792   7.215   2.083  1.00 20.00     0.136 C 
HETATM    3  C3  UNL     1     -33.815   8.177   5.368  1.00 20.00     0.015 C 
HETATM    4  C4  UNL     1     -35.403   6.343   4.260  1.00 20.00     0.045 C 
HETATM    5  C5  UNL     1     -33.019   6.000   1.177  1.00 20.00     0.080 C 
HETATM    6  C6  UNL     1     -34.364   5.397   1.722  1.00 20.00     0.018 C 
HETATM    7  C7  UNL     1     -34.062   7.317   2.911  1.00 20.00     0.092 C 
HETATM    8  C8  UNL     1     -34.371   5.770   3.216  1.00 20.00    -0.019 C 
HETATM    9  O12 UNL     1     -31.791   7.914   2.080  1.00 20.00    -0.297 OA
ENDROOT
BRANCH   8  10
HETATM   10  C11 UNL     1     -33.405   4.815   3.970  1.00 20.00    -0.013 C 
HETATM   11  C9  UNL     1     -32.650   5.589   5.035  1.00 20.00     0.010 C 
HETATM   12  C10 UNL     1     -34.191   3.663   4.568  1.00 20.00     0.010 C 
ENDBRANCH   8  10
TORSDOF 1
