REMARK  0 active torsions:
REMARK  status: ('A' for Active; 'I' for Inactive)
ROOT
HETATM    1  C1  UNL     1     -34.311   5.511   3.768  1.00 20.00     0.005 C 
HETATM    2  C2  UNL     1     -33.018   7.705   3.700  1.00 20.00     0.005 C 
HETATM    3  C3  UNL     1     -35.057   7.382   2.208  1.00 20.00     0.005 C 
HETATM    4  C4  UNL     1     -33.060   4.823   3.238  1.00 20.00     0.006 C 
HETATM    5  C5  UNL     1     -32.177   7.807   2.433  1.00 20.00     0.006 C 
HETATM    6  C6  UNL     1     -34.740   6.458   1.039  1.00 20.00     0.006 C 
HETATM    7  C7  UNL     1     -34.383   7.026   3.538  1.00 20.00    -0.014 C 
HETATM    8  C8  UNL     1     -32.575   5.207   1.881  1.00 20.00    -0.006 A 
HETATM    9  C9  UNL     1     -32.106   6.609   1.547  1.00 20.00    -0.006 A 
HETATM   10  C10 UNL     1     -33.323   6.031   0.853  1.00 20.00    -0.006 A 
ENDROOT
TORSDOF 0
