REMARK  4 active torsions:
REMARK  status: ('A' for Active; 'I' for Inactive)
REMARK    1  A    between atoms: C2_2  and  C4_4 
REMARK    2  A    between atoms: C3_3  and  C7_7 
REMARK    3  A    between atoms: C6_6  and  O10_10 
REMARK    4  A    between atoms: C7_7  and  O10_10 
ROOT
HETATM    1  C2  UNL     1     -32.545   7.154   1.931  1.00 20.00     0.006 C 
HETATM    2  C3  UNL     1     -32.654   5.901   2.394  1.00 20.00     0.082 C 
ENDROOT
BRANCH   2   3
HETATM    3  C7  UNL     1     -33.784   5.537   3.280  1.00 20.00     0.287 C 
HETATM    4  O9  UNL     1     -34.663   6.304   3.644  1.00 20.00    -0.260 OA
BRANCH   3   5
HETATM    5  O10 UNL     1     -33.634   4.216   3.599  1.00 20.00    -0.289 OA
BRANCH   5   6
HETATM    6  C6  UNL     1     -33.492   3.980   4.953  1.00 20.00     0.135 C 
HETATM    7  C1  UNL     1     -32.800   2.970   5.485  1.00 20.00     0.038 C 
ENDBRANCH   5   6
ENDBRANCH   3   5
ENDBRANCH   2   3
BRANCH   1   8
HETATM    8  C4  UNL     1     -31.467   7.575   1.064  1.00 20.00    -0.004 C 
HETATM    9  C5  UNL     1     -31.348   8.826   0.596  1.00 20.00    -0.031 C 
HETATM   10  C8  UNL     1     -32.311   9.924   0.912  1.00 20.00     0.036 C 
ENDBRANCH   1   8
TORSDOF 4
