REMARK  3 active torsions:
REMARK  status: ('A' for Active; 'I' for Inactive)
REMARK    1  A    between atoms: C3_3  and  C5_5 
REMARK    2  A    between atoms: C4_4  and  C5_5 
REMARK    3  A    between atoms: C5_5  and  O6_6 
ROOT
HETATM    1  C5  UNL     1     -32.784   6.743   2.265  1.00 20.00     0.132 C 
ENDROOT
BRANCH   1   2
HETATM    2  C3  UNL     1     -33.808   7.582   2.946  1.00 20.00     0.015 A 
HETATM    3  C1  UNL     1     -34.840   6.945   3.835  1.00 20.00     0.007 A 
HETATM    4  C2  UNL     1     -33.749   7.788   4.434  1.00 20.00     0.007 A 
ENDBRANCH   1   2
BRANCH   1   5
HETATM    5  C4  UNL     1     -31.608   7.585   1.776  1.00 20.00     0.117 C 
HETATM    6 BR7  UNL     1     -32.222   8.977   0.554  1.00 20.00    -0.094 Br
ENDBRANCH   1   5
BRANCH   1   7
HETATM    7  O6  UNL     1     -33.375   6.099   1.132  1.00 20.00    -0.394 OA
HETATM    8  H16 UNL     1     -33.689   6.808   0.551  1.00 20.00     0.210 HD
ENDBRANCH   1   7
TORSDOF 3
