REMARK  0 active torsions:
REMARK  status: ('A' for Active; 'I' for Inactive)
ROOT
HETATM    1  C1  UNL     1     -32.456   6.856   1.591  1.00 20.00     0.198 C 
HETATM    2  C2  UNL     1     -33.452   7.901   2.044  1.00 20.00     0.085 C 
HETATM    3  C3  UNL     1     -33.458   8.054   3.560  1.00 20.00     0.008 C 
HETATM    4  C4  UNL     1     -34.643   7.397   4.267  1.00 20.00     0.000 C 
HETATM    5  C5  UNL     1     -35.072   6.014   3.786  1.00 20.00     0.000 C 
HETATM    6  C6  UNL     1     -34.068   4.884   3.981  1.00 20.00     0.006 C 
HETATM    7  C7  UNL     1     -32.738   4.937   3.227  1.00 20.00     0.087 C 
HETATM    8  C8  UNL     1     -32.786   5.388   1.770  1.00 20.00     0.302 C 
HETATM    9  O9  UNL     1     -31.378   7.198   1.098  1.00 20.00    -0.291 OA
HETATM   10  F10 UNL     1     -31.852   4.648   1.095  1.00 20.00    -0.198 F 
HETATM   11  F11 UNL     1     -33.973   5.059   1.202  1.00 20.00    -0.198 F 
ENDROOT
TORSDOF 0
