REMARK  0 active torsions:
REMARK  status: ('A' for Active; 'I' for Inactive)
ROOT
HETATM    1  C1  UNL     1     -34.511   6.839   3.974  1.00 20.00     0.047 C 
HETATM    2  C2  UNL     1     -33.783   7.684   3.232  1.00 20.00    -0.014 C 
HETATM    3  C3  UNL     1     -34.357   5.376   3.758  1.00 20.00     0.149 C 
HETATM    4  C4  UNL     1     -33.321   4.888   2.760  1.00 20.00     0.084 C 
HETATM    5  C5  UNL     1     -33.100   5.885   1.625  1.00 20.00     0.021 C 
HETATM    6  C6  UNL     1     -32.263   8.312   1.262  1.00 20.00     0.014 A 
HETATM    7  C7  UNL     1     -31.395   7.716   2.331  1.00 20.00     0.014 A 
HETATM    8  C8  UNL     1     -32.830   7.260   2.188  1.00 20.00    -0.022 A 
HETATM    9  O9  UNL     1     -35.025   4.590   4.428  1.00 20.00    -0.293 OA
ENDROOT
TORSDOF 0
