REMARK  1 active torsions:
REMARK  status: ('A' for Active; 'I' for Inactive)
REMARK    1  A    between atoms: C2_2  and  C4_4 
ROOT
HETATM    1  C1  UNL     1     -34.195   7.070   3.500  1.00 20.00    -0.102 C 
HETATM    2  C2  UNL     1     -33.243   7.456   2.879  1.00 20.00     0.008 C 
HETATM    3  C3  UNL     1     -35.355   6.600   4.256  1.00 20.00     0.112 C 
ENDROOT
BRANCH   2   4
HETATM    4  C4  UNL     1     -32.092   7.923   2.128  1.00 20.00     0.459 C 
HETATM    5  F5  UNL     1     -32.472   8.743   1.123  1.00 20.00    -0.159 F 
HETATM    6  F6  UNL     1     -31.417   6.884   1.587  1.00 20.00    -0.159 F 
HETATM    7  F7  UNL     1     -31.240   8.605   2.925  1.00 20.00    -0.159 F 
ENDBRANCH   2   4
TORSDOF 1
