REMARK  0 active torsions:
REMARK  status: ('A' for Active; 'I' for Inactive)
ROOT
HETATM    1  C1  UNL     1     -33.652   7.499   3.358  1.00 20.00     0.078 C 
HETATM    2  C2  UNL     1     -34.074   5.486   2.121  1.00 20.00     0.152 C 
HETATM    3  C3  UNL     1     -34.335   6.359   3.271  1.00 20.00     0.134 C 
HETATM    4  C4  UNL     1     -32.035   6.555   1.686  1.00 20.00     0.213 C 
HETATM    5  C5  UNL     1     -32.594   7.819   2.349  1.00 20.00     0.217 C 
HETATM    6  N6  UNL     1     -33.059   5.558   1.332  1.00 20.00    -0.294 NA
HETATM    7  F7  UNL     1     -35.328   6.013   4.105  1.00 20.00    -0.205 F 
HETATM    8  F8  UNL     1     -31.555   8.464   2.952  1.00 20.00    -0.219 F 
HETATM    9 CL9  UNL     1     -33.286   8.918   1.120  1.00 20.00    -0.076 Cl
ENDROOT
TORSDOF 0
