REMARK  3 active torsions:
REMARK  status: ('A' for Active; 'I' for Inactive)
REMARK    1  A    between atoms: C5_5  and  C8_8 
REMARK    2  A    between atoms: C6_6  and  C7_7 
REMARK    3  A    between atoms: C6_6  and  C8_8 
ROOT
HETATM    1  C4  UNL     1     -34.034   6.619   0.431  1.00 20.00     0.032 C 
HETATM    2  C8  UNL     1     -32.807   6.900   1.318  1.00 20.00     0.033 C 
HETATM    3 CL9  UNL     1     -31.913   5.329   1.428  1.00 20.00    -0.120 Cl
ENDROOT
BRANCH   2   4
HETATM    4  C5  UNL     1     -31.867   7.924   0.642  1.00 20.00     0.021 C 
HETATM    5  C1  UNL     1     -32.493   9.284   0.353  1.00 20.00     0.007 C 
ENDBRANCH   2   4
BRANCH   2   6
HETATM    6  C6  UNL     1     -33.300   7.324   2.728  1.00 20.00     0.029 C 
BRANCH   6   7
HETATM    7  C7  UNL     1     -34.430   6.513   3.409  1.00 20.00    -0.021 C 
HETATM    8  C2  UNL     1     -33.968   5.059   3.579  1.00 20.00     0.009 C 
HETATM    9  C3  UNL     1     -34.866   7.057   4.768  1.00 20.00     0.009 C 
ENDBRANCH   6   7
ENDBRANCH   2   6
TORSDOF 3
