REMARK  0 active torsions:
REMARK  status: ('A' for Active; 'I' for Inactive)
ROOT
HETATM    1  C1  UNL     1     -32.516   8.147   2.182  1.00 20.00     0.008 C 
HETATM    2  C2  UNL     1     -33.584   8.562   3.195  1.00 20.00     0.030 C 
HETATM    3  C3  UNL     1     -33.074   7.233   1.095  1.00 20.00     0.081 C 
HETATM    4  C4  UNL     1     -34.069   7.451   4.125  1.00 20.00     0.270 C 
HETATM    5  C5  UNL     1     -33.571   5.418   2.902  1.00 20.00     0.348 C 
HETATM    6  C6  UNL     1     -33.147   5.763   1.482  1.00 20.00     0.269 C 
HETATM    7  N7  UNL     1     -34.615   6.275   3.452  1.00 20.00     0.089 N 
HETATM    8  F8  UNL     1     -31.916   5.210   1.278  1.00 20.00    -0.204 F 
HETATM    9  F9  UNL     1     -33.979   5.136   0.605  1.00 20.00    -0.204 F 
HETATM   10  H20 UNL     1     -35.220   5.747   4.086  1.00 20.00     0.316 HD
ENDROOT
TORSDOF 0
