REMARK  0 active torsions:
REMARK  status: ('A' for Active; 'I' for Inactive)
ROOT
HETATM    1  C1  UNL     1     -33.164   5.519   3.590  1.00 20.00     0.078 C 
HETATM    2  C2  UNL     1     -35.447   5.349   4.314  1.00 20.00     0.152 C 
HETATM    3  C3  UNL     1     -34.120   4.755   4.115  1.00 20.00     0.134 C 
HETATM    4  C4  UNL     1     -34.972   7.081   2.805  1.00 20.00     0.213 C 
HETATM    5  C5  UNL     1     -33.488   6.915   3.158  1.00 20.00     0.217 C 
HETATM    6  N6  UNL     1     -35.877   6.436   3.776  1.00 20.00    -0.294 NA
HETATM    7  F7  UNL     1     -33.914   3.516   4.588  1.00 20.00    -0.205 F 
HETATM    8  F8  UNL     1     -33.192   7.786   4.165  1.00 20.00    -0.219 F 
HETATM    9 CL9  UNL     1     -32.492   7.359   1.743  1.00 20.00    -0.076 Cl
ENDROOT
TORSDOF 0
