REMARK  1 active torsions:
REMARK  status: ('A' for Active; 'I' for Inactive)
REMARK    1  A    between atoms: C6_6  and  C11_11 
ROOT
HETATM    1  C1  UNL     1     -32.204   9.934  -0.668  1.00 20.00    -0.004 C 
HETATM    2  C2  UNL     1     -32.200   8.497  -0.763  1.00 20.00    -0.003 C 
HETATM    3  C3  UNL     1     -32.491  10.549   0.486  1.00 20.00    -0.025 C 
HETATM    4  C4  UNL     1     -32.255   7.724   0.332  1.00 20.00    -0.013 C 
HETATM    5  C7  UNL     1     -32.818   9.781   1.739  1.00 20.00     0.044 C 
HETATM    6  C11 UNL     1     -32.336   8.295   1.739  1.00 20.00    -0.000 C 
HETATM    7  C12 UNL     1     -30.932   8.201   2.365  1.00 20.00     0.025 C 
ENDROOT
BRANCH   6   8
HETATM    8  C6  UNL     1     -33.283   7.479   2.584  1.00 20.00    -0.071 C 
HETATM    9  C5  UNL     1     -34.030   7.913   3.605  1.00 20.00    -0.023 C 
HETATM   10  C8  UNL     1     -34.875   6.825   4.177  1.00 20.00     0.027 C 
HETATM   11  C10 UNL     1     -34.277   5.565   3.553  1.00 20.00     0.008 C 
HETATM   12  C9  UNL     1     -33.508   6.025   2.314  1.00 20.00     0.035 C 
ENDBRANCH   6   8
TORSDOF 1
