REMARK  1 active torsions:
REMARK  status: ('A' for Active; 'I' for Inactive)
REMARK    1  A    between atoms: C5_5  and  C7_7 
ROOT
HETATM    1  C1  UNL     1     -31.757   7.381   2.963  1.00 20.00     0.019 C 
HETATM    2  C2  UNL     1     -34.232   5.253   3.958  1.00 20.00     0.292 C 
HETATM    3  C3  UNL     1     -35.548   6.596   3.049  1.00 20.00     0.292 C 
HETATM    4  C4  UNL     1     -31.887   7.001   1.497  1.00 20.00     0.075 C 
HETATM    5  C5  UNL     1     -33.168   7.697   3.459  1.00 20.00     0.037 C 
HETATM    6  C6  UNL     1     -34.004   6.488   3.041  1.00 20.00     0.066 C 
HETATM    7  N8  UNL     1     -35.550   5.823   4.311  1.00 20.00     0.086 N 
HETATM    8  S10 UNL     1     -33.357   5.935   1.385  1.00 20.00    -0.155 SA
HETATM    9  H22 UNL     1     -36.304   5.144   4.396  1.00 20.00     0.316 HD
ENDROOT
BRANCH   5  10
HETATM   10  C7  UNL     1     -33.192   7.994   4.951  1.00 20.00     0.228 C 
HETATM   11  F9  UNL     1     -34.467   8.285   5.308  1.00 20.00    -0.255 F 
ENDBRANCH   5  10
TORSDOF 1
