REMARK  3 active torsions:
REMARK  status: ('A' for Active; 'I' for Inactive)
REMARK    1  A    between atoms: C1_1  and  C3_3 
REMARK    2  A    between atoms: C2_2  and  C9_9 
REMARK    3  A    between atoms: C3_3  and  O11_11 
ROOT
HETATM    1  C1  UNL     1     -32.154   6.861   1.727  1.00 20.00     0.085 C 
HETATM    2  C2  UNL     1     -33.107   6.264   2.473  1.00 20.00    -0.070 C 
HETATM    3  C4  UNL     1     -33.274   4.758   2.498  1.00 20.00     0.044 C 
ENDROOT
BRANCH   2   4
HETATM    4  C9  UNL     1     -34.088   7.068   3.368  1.00 20.00    -0.028 C 
HETATM    5  C5  UNL     1     -35.045   6.107   4.107  1.00 20.00     0.019 C 
HETATM    6  C6  UNL     1     -34.980   8.064   2.588  1.00 20.00     0.019 C 
HETATM    7  C7  UNL     1     -33.293   7.889   4.405  1.00 20.00     0.019 C 
ENDBRANCH   2   4
BRANCH   1   8
HETATM    8  C3  UNL     1     -31.923   8.325   1.647  1.00 20.00     0.282 C 
HETATM    9  O10 UNL     1     -31.182   8.973   2.368  1.00 20.00    -0.260 OA
BRANCH   8  10
HETATM   10  O11 UNL     1     -32.671   8.797   0.612  1.00 20.00    -0.323 OA
HETATM   11  C8  UNL     1     -32.559  10.202   0.362  1.00 20.00     0.213 C 
ENDBRANCH   8  10
ENDBRANCH   1   8
TORSDOF 3
