REMARK  1 active torsions:
REMARK  status: ('A' for Active; 'I' for Inactive)
REMARK    1  A    between atoms: C5_5  and  C6_6 
ROOT
HETATM    1  C1  UNL     1     -33.374   8.428   2.732  1.00 20.00     0.011 C 
HETATM    2  C2  UNL     1     -32.236   7.582   2.149  1.00 20.00     0.011 C 
HETATM    3  C3  UNL     1     -34.119   7.838   3.924  1.00 20.00     0.075 C 
HETATM    4  C4  UNL     1     -32.707   6.473   1.210  1.00 20.00     0.075 C 
HETATM    5  C5  UNL     1     -33.545   5.155   3.593  1.00 20.00     0.122 C 
HETATM    6  S7  UNL     1     -34.977   6.274   3.578  1.00 20.00    -0.152 SA
HETATM    7  S8  UNL     1     -32.891   4.807   1.930  1.00 20.00    -0.152 SA
ENDROOT
BRANCH   5   8
HETATM    8  C6  UNL     1     -33.976   3.831   4.223  1.00 20.00     0.140 C 
HETATM    9 CL9  UNL     1     -32.556   2.930   4.779  1.00 20.00    -0.128 Cl
ENDBRANCH   5   8
TORSDOF 1
