REMARK  1 active torsions:
REMARK  status: ('A' for Active; 'I' for Inactive)
REMARK    1  A    between atoms: C1_1  and  C4_4 
ROOT
HETATM    1  C2  UNL     1     -32.084   5.810   1.577  1.00 20.00     0.173 C 
HETATM    2  C3  UNL     1     -33.372   7.083   3.042  1.00 20.00     0.173 C 
HETATM    3  C4  UNL     1     -32.519   8.292   0.887  1.00 20.00     0.060 A 
HETATM    4  C5  UNL     1     -31.618   7.217   1.441  1.00 20.00     0.027 A 
HETATM    5  C6  UNL     1     -32.435   8.024   2.370  1.00 20.00     0.027 A 
HETATM    6  O8  UNL     1     -33.332   5.852   2.294  1.00 20.00    -0.390 OA
ENDROOT
BRANCH   3   7
HETATM    7  C1  UNL     1     -31.920   9.518   0.350  1.00 20.00     0.236 C 
HETATM    8  O7  UNL     1     -32.506  10.595   0.309  1.00 20.00    -0.306 OA
ENDBRANCH   3   7
TORSDOF 1
