REMARK  1 active torsions:
REMARK  status: ('A' for Active; 'I' for Inactive)
REMARK    1  A    between atoms: C7_7  and  N8_8 
ROOT
HETATM    1  C1  UNL     1     -33.487   7.730   3.645  1.00 20.00     0.065 C 
HETATM    2  C2  UNL     1     -32.136   8.090   3.015  1.00 20.00     0.275 C 
HETATM    3  C3  UNL     1     -32.018   6.143   1.571  1.00 20.00     0.306 C 
HETATM    4  C4  UNL     1     -33.897   6.320   3.370  1.00 20.00     0.154 A 
HETATM    5  C5  UNL     1     -33.184   5.547   2.296  1.00 20.00     0.179 A 
HETATM    6  N8  UNL     1     -31.966   7.611   1.635  1.00 20.00     0.090 N 
HETATM    7  O9  UNL     1     -32.933   5.318   3.697  1.00 20.00    -0.374 OA
ENDROOT
BRANCH   6   8
HETATM    8  C7  UNL     1     -32.902   8.236   0.703  1.00 20.00     0.268 C 
HETATM    9  C6  UNL     1     -32.724   9.716   0.674  1.00 20.00     0.037 C 
ENDBRANCH   6   8
TORSDOF 1
