REMARK  0 active torsions:
REMARK  status: ('A' for Active; 'I' for Inactive)
ROOT
HETATM    1  C1  UNL     1     -34.292   5.293   3.763  1.00 20.00     0.184 A 
HETATM    2  C2  UNL     1     -34.064   6.677   3.648  1.00 20.00     0.175 A 
HETATM    3  C3  UNL     1     -33.220   6.798   2.572  1.00 20.00     0.162 A 
HETATM    4  C4  UNL     1     -32.181   5.116   1.009  1.00 20.00     0.181 C 
HETATM    5  N5  UNL     1     -33.645   4.585   2.834  1.00 20.00    -0.181 NA
HETATM    6  N6  UNL     1     -33.002   5.528   2.125  1.00 20.00    -0.260 N 
HETATM    7  F7  UNL     1     -34.555   7.649   4.410  1.00 20.00    -0.201 F 
HETATM    8 CL8  UNL     1     -32.506   8.140   1.824  1.00 20.00    -0.059 Cl
ENDROOT
TORSDOF 0
