REMARK  0 active torsions:
REMARK  status: ('A' for Active; 'I' for Inactive)
ROOT
HETATM    1  C1  UNL     1     -33.741   6.636   3.184  1.00 20.00     0.094 A 
HETATM    2  C2  UNL     1     -33.101   7.832   3.563  1.00 20.00     0.073 A 
HETATM    3  C3  UNL     1     -33.222   6.347   1.945  1.00 20.00     0.225 A 
HETATM    4  C4  UNL     1     -33.271   8.601   4.809  1.00 20.00     0.074 C 
HETATM    5  C5  UNL     1     -31.542   7.478   0.472  1.00 20.00     0.183 C 
HETATM    6  N6  UNL     1     -32.241   8.271   2.640  1.00 20.00    -0.174 NA
HETATM    7  N7  UNL     1     -32.337   7.347   1.669  1.00 20.00    -0.247 N 
HETATM    8  F8  UNL     1     -33.520   5.307   1.166  1.00 20.00    -0.183 F 
HETATM    9 BR9  UNL     1     -35.006   5.683   4.166  1.00 20.00    -0.044 Br
ENDROOT
TORSDOF 0
