REMARK  1 active torsions:
REMARK  status: ('A' for Active; 'I' for Inactive)
REMARK    1  A    between atoms: C4_4  and  C10_10 
ROOT
HETATM    1  C1  UNL     1     -33.248   5.410   3.397  1.00 20.00     0.016 C 
HETATM    2  C2  UNL     1     -32.800   5.270   1.947  1.00 20.00     0.017 C 
HETATM    3  C3  UNL     1     -34.509   6.254   3.226  1.00 20.00     0.122 C 
HETATM    4  C4  UNL     1     -33.115   6.660   1.383  1.00 20.00     0.129 C 
HETATM    5  C5  UNL     1     -33.497   4.087   4.107  1.00 20.00     0.013 C 
HETATM    6  C6  UNL     1     -31.368   4.789   1.771  1.00 20.00     0.013 C 
HETATM    7  C7  UNL     1     -34.875   7.066   4.456  1.00 20.00     0.040 C 
HETATM    8  O11 UNL     1     -34.248   7.148   2.130  1.00 20.00    -0.380 OA
ENDROOT
BRANCH   4   9
HETATM    9  C10 UNL     1     -32.006   7.697   1.505  1.00 20.00     0.007 C 
HETATM   10  C8  UNL     1     -32.201   8.820   0.487  1.00 20.00     0.012 C 
HETATM   11  C9  UNL     1     -31.952   8.266   2.923  1.00 20.00     0.012 C 
ENDBRANCH   4   9
TORSDOF 1
