REMARK  0 active torsions:
REMARK  status: ('A' for Active; 'I' for Inactive)
ROOT
HETATM    1  C1  UNL     1     -33.135   6.048   2.818  1.00 20.00     0.016 C 
HETATM    2  C2  UNL     1     -33.363   7.552   2.718  1.00 20.00     0.016 C 
HETATM    3  C3  UNL     1     -34.473   5.594   3.397  1.00 20.00     0.122 C 
HETATM    4  C4  UNL     1     -34.151   7.838   4.001  1.00 20.00     0.122 C 
HETATM    5  C5  UNL     1     -32.789   5.377   1.497  1.00 20.00     0.013 C 
HETATM    6  C6  UNL     1     -32.098   8.371   2.515  1.00 20.00     0.013 C 
HETATM    7  C7  UNL     1     -34.397   4.286   4.164  1.00 20.00     0.040 C 
HETATM    8  C8  UNL     1     -33.319   8.163   5.236  1.00 20.00     0.040 C 
HETATM    9  O9  UNL     1     -34.901   6.640   4.287  1.00 20.00    -0.381 OA
ENDROOT
TORSDOF 0
