REMARK  1 active torsions:
REMARK  status: ('A' for Active; 'I' for Inactive)
REMARK    1  A    between atoms: CA_4  and  C_5 
ROOT
HETATM    1  C1  UNK A   1     -32.529   7.050   1.542  1.00 20.00     0.013 A 
HETATM    2  C2  UNK A   1     -31.652   7.398   0.386  1.00 20.00     0.066 C 
ATOM      3  N   VAL A   1     -33.072   5.879   1.691  1.00 20.00    -0.255 NA
ATOM      4  CA  VAL A   1     -33.783   5.984   2.857  1.00 20.00     0.096 A 
ATOM      5  CB  VAL A   1     -33.704   7.183   3.446  1.00 20.00    -0.047 A 
ATOM      6  CG1 VAL A   1     -34.314   7.698   4.699  1.00 20.00     0.046 C 
ATOM      7  CG2 VAL A   1     -32.831   8.067   2.613  1.00 20.00     0.090 A 
ENDROOT
BRANCH   4   8
ATOM      8  C   VAL A   1     -34.541   4.844   3.358  1.00 20.00     0.290 C 
ATOM      9  O   VAL A   1     -35.194   4.883   4.398  1.00 20.00    -0.300 OA
ENDBRANCH   4   8
TORSDOF 1
