REMARK  1 active torsions:
REMARK  status: ('A' for Active; 'I' for Inactive)
REMARK    1  A    between atoms: C4_4  and  C10_10 
ROOT
HETATM    1  C1  UNL     1     -31.730   5.718   1.383  1.00 20.00     0.016 C 
HETATM    2  C2  UNL     1     -33.042   5.321   2.066  1.00 20.00     0.017 C 
HETATM    3  C3  UNL     1     -31.682   7.247   1.531  1.00 20.00     0.122 C 
HETATM    4  C4  UNL     1     -33.104   6.383   3.167  1.00 20.00     0.129 C 
HETATM    5  C5  UNL     1     -31.490   5.162  -0.012  1.00 20.00     0.013 C 
HETATM    6  C6  UNL     1     -34.260   5.307   1.142  1.00 20.00     0.013 C 
HETATM    7  C7  UNL     1     -32.000   8.074   0.295  1.00 20.00     0.040 C 
HETATM    8  O11 UNL     1     -32.631   7.595   2.559  1.00 20.00    -0.380 OA
ENDROOT
BRANCH   4   9
HETATM    9  C10 UNL     1     -34.460   6.631   3.803  1.00 20.00     0.007 C 
HETATM   10  C8  UNL     1     -35.010   5.347   4.426  1.00 20.00     0.012 C 
HETATM   11  C9  UNL     1     -34.372   7.737   4.855  1.00 20.00     0.012 C 
ENDBRANCH   4   9
TORSDOF 1
