REMARK  2 active torsions:
REMARK  status: ('A' for Active; 'I' for Inactive)
REMARK    1  A    between atoms: C2_2  and  C9_9 
REMARK    2  A    between atoms: C3_3  and  C6_6 
ROOT
HETATM    1  C1  UNL     1     -32.810   5.742   1.740  1.00 20.00     0.079 A 
HETATM    2  C2  UNL     1     -33.417   6.705   2.520  1.00 20.00     0.045 A 
HETATM    3  C3  UNL     1     -32.494   8.022   1.029  1.00 20.00     0.079 A 
HETATM    4  N10 UNL     1     -33.237   8.012   2.114  1.00 20.00    -0.249 NA
HETATM    5  S11 UNL     1     -31.979   6.494   0.442  1.00 20.00    -0.084 SA
ENDROOT
BRANCH   2   6
HETATM    6  C9  UNL     1     -34.249   6.443   3.762  1.00 20.00     0.030 C 
HETATM    7  C7  UNL     1     -34.916   5.066   3.713  1.00 20.00     0.016 C 
HETATM    8  C8  UNL     1     -35.289   7.544   3.985  1.00 20.00     0.016 C 
ENDBRANCH   2   6
BRANCH   3   9
HETATM    9  C6  UNL     1     -32.109   9.333   0.323  1.00 20.00     0.045 A 
HETATM   10  C4  UNL     1     -33.009  10.535   0.488  1.00 20.00     0.012 A 
HETATM   11  C5  UNL     1     -32.966   9.816  -0.824  1.00 20.00     0.012 A 
ENDBRANCH   3   9
TORSDOF 2
