REMARK  0 active torsions:
REMARK  status: ('A' for Active; 'I' for Inactive)
ROOT
HETATM    1  C1  UNL     1     -33.418   6.146   1.877  1.00 20.00     0.017 C 
HETATM    2  C2  UNL     1     -32.766   7.359   2.533  1.00 20.00     0.027 C 
HETATM    3  C3  UNL     1     -34.289   5.601   3.012  1.00 20.00     0.123 C 
HETATM    4  C4  UNL     1     -33.912   7.880   3.388  1.00 20.00     0.197 C 
HETATM    5  C5  UNL     1     -32.440   5.159   1.260  1.00 20.00     0.013 C 
HETATM    6  C6  UNL     1     -32.237   8.388   1.543  1.00 20.00     0.014 C 
HETATM    7  C7  UNL     1     -33.601   4.650   3.985  1.00 20.00     0.040 C 
HETATM    8  O8  UNL     1     -34.722   6.755   3.757  1.00 20.00    -0.369 OA
HETATM    9 BR9  UNL     1     -33.255   8.766   4.987  1.00 20.00    -0.061 Br
ENDROOT
TORSDOF 0
