REMARK  2 active torsions:
REMARK  status: ('A' for Active; 'I' for Inactive)
REMARK    1  A    between atoms: C1_1  and  C3_3 
REMARK    2  A    between atoms: C3_3  and  C4_4 
ROOT
HETATM    1  C3  UNL     1     -32.648   6.212   1.836  1.00 20.00     0.319 C 
HETATM    2  F7  UNL     1     -33.041   5.987   0.544  1.00 20.00    -0.209 F 
HETATM    3 CL12 UNL     1     -31.191   5.203   2.108  1.00 20.00    -0.067 Cl
ENDROOT
BRANCH   1   4
HETATM    4  C1  UNL     1     -33.744   5.806   2.795  1.00 20.00     0.143 C 
HETATM    5  C2  UNL     1     -34.357   6.642   3.645  1.00 20.00     0.289 C 
HETATM    6  F5  UNL     1     -35.329   6.194   4.469  1.00 20.00    -0.171 F 
HETATM    7  F6  UNL     1     -34.014   7.948   3.693  1.00 20.00    -0.171 F 
HETATM    8 CL11 UNL     1     -34.228   4.135   2.781  1.00 20.00    -0.078 Cl
ENDBRANCH   1   4
BRANCH   1   9
HETATM    9  C4  UNL     1     -32.280   7.686   1.910  1.00 20.00     0.443 C 
HETATM   10  F8  UNL     1     -31.845   8.010   3.150  1.00 20.00    -0.166 F 
HETATM   11  F9  UNL     1     -33.318   8.499   1.623  1.00 20.00    -0.166 F 
HETATM   12  F10 UNL     1     -31.279   7.977   1.048  1.00 20.00    -0.166 F 
ENDBRANCH   1   9
TORSDOF 2
