REMARK  2 active torsions:
REMARK  status: ('A' for Active; 'I' for Inactive)
REMARK    1  A    between atoms: C6_6  and  C7_7 
REMARK    2  A    between atoms: C6_6  and  C8_8 
ROOT
HETATM    1  C1  UNL     1     -35.302   5.997   4.354  1.00 20.00     0.012 C 
HETATM    2  C2  UNL     1     -34.509   6.759   3.872  1.00 20.00    -0.117 C 
HETATM    3  C7  UNL     1     -33.543   7.695   3.289  1.00 20.00     0.103 C 
ENDROOT
BRANCH   3   4
HETATM    4  C6  UNL     1     -32.845   7.082   2.080  1.00 20.00    -0.021 C 
HETATM    5  C4  UNL     1     -33.811   6.680   0.927  1.00 20.00     0.011 C 
HETATM    6  C3  UNL     1     -33.021   5.365   0.786  1.00 20.00     0.002 C 
HETATM    7  C5  UNL     1     -32.528   5.565   2.232  1.00 20.00     0.011 C 
BRANCH   4   8
HETATM    8  C8  UNL     1     -31.653   7.930   1.632  1.00 20.00     0.095 C 
HETATM    9 BR9  UNL     1     -32.298   9.550   0.785  1.00 20.00    -0.096 Br
ENDBRANCH   4   8
ENDBRANCH   3   4
TORSDOF 2
