REMARK  0 active torsions:
REMARK  status: ('A' for Active; 'I' for Inactive)
ROOT
HETATM    1  C1  UNL     1     -34.153   6.592   3.475  1.00 20.00     0.217 C 
HETATM    2  C2  UNL     1     -33.078   5.818   2.743  1.00 20.00     0.108 C 
HETATM    3  C3  UNL     1     -32.581   8.484   3.246  1.00 20.00     0.131 C 
HETATM    4  C4  UNL     1     -32.670   6.607   1.491  1.00 20.00    -0.001 C 
HETATM    5  C5  UNL     1     -32.042   7.993   1.875  1.00 20.00    -0.028 C 
HETATM    6  C6  UNL     1     -31.808   5.739   0.572  1.00 20.00     0.011 C 
HETATM    7  C7  UNL     1     -32.416   9.023   0.788  1.00 20.00     0.016 C 
HETATM    8  C8  UNL     1     -30.504   7.947   1.972  1.00 20.00     0.016 C 
HETATM    9  N9  UNL     1     -33.879   7.941   3.587  1.00 20.00    -0.360 N 
HETATM   10  O10 UNL     1     -35.160   6.054   3.928  1.00 20.00    -0.274 OA
HETATM   11  H25 UNL     1     -34.587   8.548   3.908  1.00 20.00     0.162 HD
ENDROOT
TORSDOF 0
