REMARK  0 active torsions:
REMARK  status: ('A' for Active; 'I' for Inactive)
ROOT
HETATM    1  C1  UNL     1     -33.525   7.561   3.166  1.00 20.00     0.105 C 
HETATM    2  C2  UNL     1     -32.522   7.496   2.271  1.00 20.00     0.056 C 
HETATM    3  C3  UNL     1     -34.419   6.387   3.334  1.00 20.00     0.196 C 
HETATM    4  C4  UNL     1     -32.967   5.342   1.552  1.00 20.00     0.035 C 
HETATM    5  C5  UNL     1     -34.054   5.147   2.573  1.00 20.00     0.205 C 
HETATM    6  C6  UNL     1     -31.550   8.628   2.037  1.00 20.00     0.072 C 
HETATM    7  C7  UNL     1     -32.668   4.207   0.601  1.00 20.00     0.068 C 
HETATM    8  N8  UNL     1     -32.263   6.424   1.446  1.00 20.00    -0.259 NA
HETATM    9  O9  UNL     1     -35.391   6.418   4.086  1.00 20.00    -0.289 OA
HETATM   10 CL10 UNL     1     -33.861   8.922   4.168  1.00 20.00    -0.078 Cl
HETATM   11 CL11 UNL     1     -33.488   3.955   3.762  1.00 20.00    -0.110 Cl
ENDROOT
TORSDOF 0
