REMARK  2 active torsions:
REMARK  status: ('A' for Active; 'I' for Inactive)
REMARK    1  A    between atoms: C3_3  and  C9_9 
REMARK    2  A    between atoms: C3_3  and  C10_10 
ROOT
HETATM    1  C3  UNL     1     -32.849   6.899   2.259  1.00 20.00     0.135 C 
HETATM    2  O11 UNL     1     -32.761   5.934   1.501  1.00 20.00    -0.297 OA
ENDROOT
BRANCH   1   3
HETATM    3  C9  UNL     1     -31.962   8.145   2.085  1.00 20.00     0.063 C 
HETATM    4  C4  UNL     1     -31.639   8.579   0.632  1.00 20.00     0.045 C 
HETATM    5  C1  UNL     1     -32.593   9.718   0.891  1.00 20.00    -0.088 C 
HETATM    6  C2  UNL     1     -33.201  10.591   0.085  1.00 20.00     0.014 C 
HETATM    7  C5  UNL     1     -32.609   9.522   2.386  1.00 20.00     0.045 C 
ENDBRANCH   1   3
BRANCH   1   8
HETATM    8  C10 UNL     1     -33.811   6.921   3.374  1.00 20.00     0.056 C 
HETATM    9  C7  UNL     1     -35.275   7.260   2.994  1.00 20.00     0.012 C 
HETATM   10  C6  UNL     1     -35.710   6.220   4.048  1.00 20.00     0.002 C 
HETATM   11  C8  UNL     1     -34.344   5.538   3.829  1.00 20.00     0.012 C 
ENDBRANCH   1   8
TORSDOF 2
