REMARK  2 active torsions:
REMARK  status: ('A' for Active; 'I' for Inactive)
REMARK    1  A    between atoms: C1_1  and  C2_2 
REMARK    2  A    between atoms: C1_1  and  C3_3 
ROOT
HETATM    1  C1  UNL     1     -33.627   5.888   2.887  1.00 20.00     0.168 C 
ENDROOT
BRANCH   1   2
HETATM    2  C2  UNL     1     -34.825   6.558   3.533  1.00 20.00     0.360 C 
HETATM    3  F4  UNL     1     -35.376   5.707   4.436  1.00 20.00    -0.214 F 
HETATM    4  F5  UNL     1     -34.424   7.651   4.227  1.00 20.00    -0.214 F 
ENDBRANCH   1   2
BRANCH   1   5
HETATM    5  C3  UNL     1     -32.902   6.751   1.866  1.00 20.00     0.325 C 
HETATM    6  F6  UNL     1     -33.751   7.088   0.863  1.00 20.00    -0.188 F 
HETATM    7  F7  UNL     1     -32.532   7.916   2.463  1.00 20.00    -0.188 F 
HETATM    8 CL8  UNL     1     -31.465   5.966   1.193  1.00 20.00    -0.048 Cl
ENDBRANCH   1   5
TORSDOF 2
