REMARK  1 active torsions:
REMARK  status: ('A' for Active; 'I' for Inactive)
REMARK    1  A    between atoms: C1_1  and  S3_3 
ROOT
HETATM    1  C1  UNL     1     -32.949   6.783   2.187  1.00 20.00     0.295 C 
HETATM    2  O2  UNL     1     -32.785   5.606   1.887  1.00 20.00    -0.266 OA
HETATM    3 CL4  UNL     1     -32.162   8.138   1.430  1.00 20.00    -0.031 Cl
ENDROOT
BRANCH   1   4
HETATM    4  S3  UNL     1     -34.052   7.277   3.484  1.00 20.00     0.036 SA
HETATM    5 CL5  UNL     1     -34.754   5.470   4.102  1.00 20.00    -0.034 Cl
ENDBRANCH   1   4
TORSDOF 1
