REMARK  2 active torsions:
REMARK  status: ('A' for Active; 'I' for Inactive)
REMARK    1  A    between atoms: C2_2  and  O6_6 
REMARK    2  A    between atoms: C5_5  and  O6_6 
ROOT
HETATM    1  C1  UNL     1     -31.519   7.976   2.523  1.00 20.00     0.099 A 
HETATM    2  C2  UNL     1     -33.015   7.869   2.611  1.00 20.00     0.181 A 
HETATM    3  C3  UNL     1     -32.283   7.259   1.447  1.00 20.00     0.207 A 
HETATM    4  F7  UNL     1     -32.170   5.873   1.444  1.00 20.00    -0.223 F 
HETATM    5 CL8  UNL     1     -32.430   8.015  -0.128  1.00 20.00    -0.080 Cl
ENDROOT
BRANCH   2   6
HETATM    6  O6  UNL     1     -33.522   6.950   3.592  1.00 20.00    -0.382 OA
BRANCH   6   7
HETATM    7  C5  UNL     1     -34.857   6.582   3.298  1.00 20.00     0.164 C 
HETATM    8  C4  UNL     1     -35.347   5.616   4.356  1.00 20.00     0.033 C 
ENDBRANCH   6   7
ENDBRANCH   2   6
TORSDOF 2
