REMARK  0 active torsions:
REMARK  status: ('A' for Active; 'I' for Inactive)
ROOT
HETATM    1  C1  UNL     1     -34.748   5.326   4.366  1.00 20.00     0.023 C 
HETATM    2  C2  UNL     1     -33.773   4.470   4.039  1.00 20.00     0.047 C 
HETATM    3  C3  UNL     1     -34.773   6.626   3.580  1.00 20.00     0.040 C 
HETATM    4  C4  UNL     1     -33.483   3.151   4.654  1.00 20.00     0.076 C 
HETATM    5  C5  UNL     1     -34.365   7.772   4.514  1.00 20.00     0.029 C 
HETATM    6  C6  UNL     1     -36.164   6.901   3.011  1.00 20.00     0.029 C 
HETATM    7  O7  UNL     1     -32.942   4.882   3.007  1.00 20.00    -0.305 OA
HETATM    8  P8  UNL     1     -33.483   6.260   2.311  1.00 20.00     0.165 P 
HETATM    9  S9  UNL     1     -32.154   7.568   1.798  1.00 20.00    -0.049 SA
HETATM   10 CL10 UNL     1     -34.420   5.518   0.692  1.00 20.00    -0.054 Cl
ENDROOT
TORSDOF 0
