REMARK  0 active torsions:
REMARK  status: ('A' for Active; 'I' for Inactive)
ROOT
HETATM    1  C1  UNL     1     -33.486   5.456   2.974  1.00 20.00    -0.071 C 
HETATM    2  C2  UNL     1     -33.427   4.248   3.545  1.00 20.00    -0.027 C 
HETATM    3  C3  UNL     1     -32.742   7.633   3.869  1.00 20.00     0.009 C 
HETATM    4  C4  UNL     1     -32.428   8.123   2.444  1.00 20.00     0.006 C 
HETATM    5  C5  UNL     1     -34.675   7.416   2.498  1.00 20.00     0.014 C 
HETATM    6  C6  UNL     1     -33.964   6.723   3.658  1.00 20.00     0.015 C 
HETATM    7  C7  UNL     1     -33.447   7.349   1.577  1.00 20.00    -0.002 C 
HETATM    8  C8  UNL     1     -33.140   5.814   1.532  1.00 20.00    -0.021 C 
HETATM    9  C9  UNL     1     -33.828   3.971   4.955  1.00 20.00     0.036 C 
HETATM   10  C10 UNL     1     -34.059   5.100   0.525  1.00 20.00     0.020 C 
HETATM   11  C11 UNL     1     -31.681   5.494   1.175  1.00 20.00     0.020 C 
ENDROOT
TORSDOF 0
