REMARK  1 active torsions:
REMARK  status: ('A' for Active; 'I' for Inactive)
REMARK    1  A    between atoms: C2_2  and  C6_6 
ROOT
HETATM    1  C3  UNL     1     -32.799   9.781   2.593  1.00 20.00     0.006 C 
HETATM    2  C4  UNL     1     -32.555   9.506   1.104  1.00 20.00     0.006 C 
HETATM    3  C5  UNL     1     -30.927   8.349   2.345  1.00 20.00     0.010 C 
HETATM    4  C6  UNL     1     -32.886   7.271   3.119  1.00 20.00     0.025 C 
HETATM    5  C7  UNL     1     -32.105   8.595   3.291  1.00 20.00    -0.005 C 
HETATM    6  C8  UNL     1     -31.835   8.146   1.122  1.00 20.00    -0.006 C 
HETATM    7  C9  UNL     1     -32.789   6.993   1.587  1.00 20.00    -0.036 C 
HETATM    8  C11 UNL     1     -32.121   5.624   1.335  1.00 20.00     0.016 C 
HETATM    9  C12 UNL     1     -34.129   6.987   0.831  1.00 20.00     0.016 C 
ENDROOT
BRANCH   4  10
HETATM   10  C2  UNL     1     -34.245   7.287   3.742  1.00 20.00    -0.088 C 
HETATM   11  C1  UNL     1     -34.743   8.384   4.331  1.00 20.00     0.014 C 
HETATM   12  C10 UNL     1     -35.021   6.005   3.669  1.00 20.00     0.043 C 
ENDBRANCH   4  10
TORSDOF 1
