REMARK  2 active torsions:
REMARK  status: ('A' for Active; 'I' for Inactive)
REMARK    1  A    between atoms: C1_1  and  P9_9 
REMARK    2  A    between atoms: C2_2  and  P9_9 
ROOT
HETATM    1  P9  UNL     1     -34.045   6.772   1.896  1.00 20.00     0.209 P 
HETATM    2 CL10 UNL     1     -34.282   4.865   1.053  1.00 20.00    -0.077 Cl
ENDROOT
BRANCH   1   3
HETATM    3  C1  UNL     1     -34.021   6.418   3.621  1.00 20.00     0.429 C 
HETATM    4  F3  UNL     1     -33.573   7.524   4.218  1.00 20.00    -0.165 F 
HETATM    5  F4  UNL     1     -35.284   6.148   3.955  1.00 20.00    -0.165 F 
HETATM    6  F5  UNL     1     -33.213   5.375   3.815  1.00 20.00    -0.165 F 
ENDBRANCH   1   3
BRANCH   1   7
HETATM    7  C2  UNL     1     -32.370   7.149   1.506  1.00 20.00     0.429 C 
HETATM    8  F6  UNL     1     -32.349   7.424   0.200  1.00 20.00    -0.165 F 
HETATM    9  F7  UNL     1     -31.672   6.048   1.794  1.00 20.00    -0.165 F 
HETATM   10  F8  UNL     1     -31.999   8.191   2.250  1.00 20.00    -0.165 F 
ENDBRANCH   1   7
TORSDOF 2
