REMARK  0 active torsions:
REMARK  status: ('A' for Active; 'I' for Inactive)
ROOT
HETATM    1  C1  UNL     1     -34.079   6.445   2.895  1.00 20.00     0.227 C 
HETATM    2 CL2  UNL     1     -34.178   4.995   3.913  1.00 20.00    -0.076 Cl
HETATM    3 CL3  UNL     1     -33.199   7.732   3.742  1.00 20.00    -0.076 Cl
HETATM    4 BR4  UNL     1     -33.117   5.998   1.259  1.00 20.00    -0.037 Br
HETATM    5 BR5  UNL     1     -35.888   7.068   2.514  1.00 20.00    -0.037 Br
ENDROOT
TORSDOF 0
