REMARK  1 active torsions:
REMARK  status: ('A' for Active; 'I' for Inactive)
REMARK    1  A    between atoms: C2_2  and  C3_3 
ROOT
HETATM    1  C1  UNL     1     -34.437   5.500   3.961  1.00 20.00     0.051 C 
HETATM    2  C3  UNL     1     -34.049   6.730   3.142  1.00 20.00     0.122 C 
HETATM    3 CL5  UNL     1     -35.535   7.498   2.488  1.00 20.00    -0.101 Cl
HETATM    4 CL6  UNL     1     -33.267   7.919   4.248  1.00 20.00    -0.101 Cl
ENDROOT
BRANCH   2   5
HETATM    5  C2  UNL     1     -33.061   6.417   2.010  1.00 20.00     0.156 C 
HETATM    6 CL4  UNL     1     -32.186   7.853   1.410  1.00 20.00    -0.127 Cl
ENDBRANCH   2   5
TORSDOF 1
