REMARK  1 active torsions:
REMARK  status: ('A' for Active; 'I' for Inactive)
REMARK    1  A    between atoms: C4_4  and  C8_8 
ROOT
HETATM    1  C1  UNL     1     -34.850   6.991   3.547  1.00 20.00     0.030 A 
HETATM    2  C2  UNL     1     -33.054   5.410   3.306  1.00 20.00     0.055 A 
HETATM    3  C3  UNL     1     -35.621   5.957   4.052  1.00 20.00     0.119 A 
HETATM    4  C4  UNL     1     -33.543   6.705   3.170  1.00 20.00    -0.010 A 
HETATM    5  C5  UNL     1     -33.905   4.446   3.822  1.00 20.00     0.126 A 
HETATM    6  N9  UNL     1     -35.181   4.687   4.200  1.00 20.00    -0.249 NA
HETATM    7 CL12 UNL     1     -33.388   2.823   4.025  1.00 20.00    -0.062 Cl
ENDROOT
BRANCH   4   8
HETATM    8  C8  UNL     1     -32.635   7.824   2.599  1.00 20.00     0.173 C 
HETATM    9  C6  UNL     1     -31.553   7.411   1.589  1.00 20.00     0.218 C 
HETATM   10  O10 UNL     1     -31.934   8.488   0.701  1.00 20.00    -0.384 OA
HETATM   11  C7  UNL     1     -33.181   8.645   1.420  1.00 20.00     0.218 C 
HETATM   12  F11 UNL     1     -32.191   8.553   3.645  1.00 20.00    -0.233 F 
ENDBRANCH   4   8
TORSDOF 1
