REMARK  0 active torsions:
REMARK  status: ('A' for Active; 'I' for Inactive)
ROOT
HETATM    1  C1  UNL     1     -33.070   6.838   2.353  1.00 20.00    -0.071 C 
HETATM    2  C2  UNL     1     -33.943   6.005   2.930  1.00 20.00    -0.027 C 
HETATM    3  C3  UNL     1     -33.329   9.236   1.826  1.00 20.00     0.009 C 
HETATM    4  C4  UNL     1     -32.393   9.081   0.613  1.00 20.00     0.006 C 
HETATM    5  C5  UNL     1     -31.253   8.305   2.525  1.00 20.00     0.014 C 
HETATM    6  C6  UNL     1     -32.746   8.238   2.841  1.00 20.00     0.015 C 
HETATM    7  C7  UNL     1     -31.450   7.935   1.046  1.00 20.00    -0.002 C 
HETATM    8  C8  UNL     1     -32.193   6.560   1.136  1.00 20.00    -0.021 C 
HETATM    9  C9  UNL     1     -34.733   6.338   4.150  1.00 20.00     0.036 C 
HETATM   10  C10 UNL     1     -33.009   6.224  -0.119  1.00 20.00     0.020 C 
HETATM   11  C11 UNL     1     -31.197   5.414   1.395  1.00 20.00     0.020 C 
ENDROOT
TORSDOF 0
