REMARK  1 active torsions:
REMARK  status: ('A' for Active; 'I' for Inactive)
REMARK    1  A    between atoms: C1_1  and  C2_2 
ROOT
HETATM    1  C1  UNL     1     -34.357   7.117   3.516  1.00 20.00     0.314 C 
HETATM    2  F3  UNL     1     -34.196   7.984   4.552  1.00 20.00    -0.228 F 
HETATM    3 CL5  UNL     1     -35.078   5.616   4.138  1.00 20.00    -0.085 Cl
ENDROOT
BRANCH   1   4
HETATM    4  C2  UNL     1     -33.010   6.840   2.879  1.00 20.00     0.314 C 
HETATM    5  F4  UNL     1     -32.479   8.005   2.422  1.00 20.00    -0.228 F 
HETATM    6 CL6  UNL     1     -33.182   5.719   1.511  1.00 20.00    -0.085 Cl
ENDBRANCH   1   4
TORSDOF 1
