REMARK  1 active torsions:
REMARK  status: ('A' for Active; 'I' for Inactive)
REMARK    1  A    between atoms: C2_2  and  C7_7 
ROOT
HETATM    1  C1  UNL     1     -32.044   6.630   0.830  1.00 20.00     0.149 A 
HETATM    2  C2  UNL     1     -32.226   7.802   1.620  1.00 20.00    -0.001 A 
HETATM    3  C3  UNL     1     -33.036   7.376   2.634  1.00 20.00     0.039 A 
HETATM    4  C4  UNL     1     -33.725   7.816   3.859  1.00 20.00     0.061 C 
HETATM    5  C5  UNL     1     -34.703   6.635   4.115  1.00 20.00     0.028 C 
HETATM    6  C6  UNL     1     -34.122   5.416   3.369  1.00 20.00     0.151 C 
HETATM    7  N8  UNL     1     -32.691   5.555   1.314  1.00 20.00    -0.184 NA
HETATM    8  N9  UNL     1     -33.270   6.063   2.396  1.00 20.00    -0.274 N 
ENDROOT
BRANCH   2   9
HETATM    9  C7  UNL     1     -31.671   9.144   1.395  1.00 20.00     0.156 C 
HETATM   10 CL10 UNL     1     -32.524   9.986   0.071  1.00 20.00    -0.125 Cl
ENDBRANCH   2   9
TORSDOF 1
