REMARK  1 active torsions:
REMARK  status: ('A' for Active; 'I' for Inactive)
REMARK    1  A    between atoms: C4_4  and  C9_9 
ROOT
HETATM    1  C1  UNL     1     -33.374   4.795   3.328  1.00 20.00     0.065 A 
HETATM    2  C2  UNL     1     -34.700   6.771   3.578  1.00 20.00     0.095 A 
HETATM    3  C3  UNL     1     -35.236   4.858   4.829  1.00 20.00     0.142 A 
HETATM    4  C4  UNL     1     -33.632   6.117   2.979  1.00 20.00    -0.031 A 
HETATM    5  C5  UNL     1     -34.182   4.155   4.262  1.00 20.00     0.187 A 
HETATM    6  N10 UNL     1     -35.462   6.130   4.474  1.00 20.00    -0.371 N 
HETATM    7  O11 UNL     1     -33.961   2.939   4.595  1.00 20.00    -0.287 OA
HETATM    8  H24 UNL     1     -36.242   6.628   4.902  1.00 20.00     0.164 HD
ENDROOT
BRANCH   4   9
HETATM    9  C9  UNL     1     -32.751   6.844   1.949  1.00 20.00    -0.023 C 
HETATM   10  C6  UNL     1     -31.646   5.891   1.446  1.00 20.00     0.019 C 
HETATM   11  C7  UNL     1     -32.097   8.080   2.604  1.00 20.00     0.019 C 
HETATM   12  C8  UNL     1     -33.524   7.342   0.706  1.00 20.00     0.019 C 
ENDBRANCH   4   9
TORSDOF 1
