REMARK  2 active torsions:
REMARK  status: ('A' for Active; 'I' for Inactive)
REMARK    1  A    between atoms: C7_7  and  O10_10 
REMARK    2  A    between atoms: C9_9  and  O10_10 
ROOT
HETATM    1  C1  UNL     1     -34.376   8.023   4.329  1.00 20.00     0.000 C 
HETATM    2  C2  UNL     1     -34.632   6.614   4.139  1.00 20.00     0.022 C 
HETATM    3  C3  UNL     1     -33.450   8.664   3.601  1.00 20.00     0.008 C 
HETATM    4  C4  UNL     1     -33.791   5.856   3.421  1.00 20.00     0.048 C 
HETATM    5  C7  UNL     1     -32.611   7.953   2.576  1.00 20.00     0.184 C 
HETATM    6  C8  UNL     1     -32.555   6.423   2.777  1.00 20.00     0.247 C 
HETATM    7  F11 UNL     1     -32.308   5.840   1.569  1.00 20.00    -0.240 F 
HETATM    8 CL12 UNL     1     -34.066   4.167   3.223  1.00 20.00    -0.086 Cl
ENDROOT
BRANCH   5   9
HETATM    9  O10 UNL     1     -33.167   8.256   1.297  1.00 20.00    -0.373 OA
BRANCH   9  10
HETATM   10  C9  UNL     1     -32.240   8.961   0.486  1.00 20.00     0.122 A 
HETATM   11  C5  UNL     1     -32.827   9.847  -0.575  1.00 20.00     0.034 A 
HETATM   12  C6  UNL     1     -32.216  10.453   0.655  1.00 20.00     0.034 A 
ENDBRANCH   9  10
ENDBRANCH   5   9
TORSDOF 2
