REMARK  1 active torsions:
REMARK  status: ('A' for Active; 'I' for Inactive)
REMARK    1  A    between atoms: C3_3  and  C6_6 
ROOT
HETATM    1  C1  UNL     1     -33.076   7.748   2.774  1.00 20.00     0.055 A 
HETATM    2  C2  UNL     1     -34.107   5.840   3.751  1.00 20.00     0.160 A 
HETATM    3  C3  UNL     1     -32.646   6.942   1.727  1.00 20.00    -0.001 A 
HETATM    4  C4  UNL     1     -33.821   7.194   3.810  1.00 20.00     0.134 A 
HETATM    5  C5  UNL     1     -32.984   5.599   1.761  1.00 20.00     0.133 A 
HETATM    6  N7  UNL     1     -33.706   5.025   2.750  1.00 20.00    -0.245 NA
HETATM    7  F8  UNL     1     -34.248   7.946   4.831  1.00 20.00    -0.205 F 
HETATM    8 CL9  UNL     1     -32.510   4.500   0.525  1.00 20.00    -0.062 Cl
ENDROOT
BRANCH   3   9
HETATM    9  C6  UNL     1     -31.849   7.541   0.619  1.00 20.00     0.156 C 
HETATM   10 CL10 UNL     1     -31.956   9.316   0.655  1.00 20.00    -0.125 Cl
ENDBRANCH   3   9
TORSDOF 1
