REMARK  2 active torsions:
REMARK  status: ('A' for Active; 'I' for Inactive)
REMARK    1  A    between atoms: C1_1  and  C3_3 
REMARK    2  A    between atoms: C1_1  and  C5_5 
ROOT
HETATM    1  C2  UNL     1     -34.243   7.897   4.011  1.00 20.00     0.098 A 
HETATM    2  C3  UNL     1     -33.501   6.720   3.410  1.00 20.00     0.134 A 
HETATM    3  C4  UNL     1     -34.985   6.714   3.512  1.00 20.00     0.255 A 
HETATM    4  F7  UNL     1     -35.622   5.868   4.392  1.00 20.00    -0.205 F 
HETATM    5  F8  UNL     1     -35.777   6.811   2.390  1.00 20.00    -0.205 F 
ENDROOT
BRANCH   2   6
HETATM    6  C1  UNL     1     -32.863   6.872   2.099  1.00 20.00     0.146 C 
HETATM    7  O6  UNL     1     -33.130   6.095   1.184  1.00 20.00    -0.297 OA
BRANCH   6   8
HETATM    8  C5  UNL     1     -31.892   8.022   1.979  1.00 20.00     0.164 C 
HETATM    9 BR9  UNL     1     -32.445   9.223   0.563  1.00 20.00    -0.089 Br
ENDBRANCH   6   8
ENDBRANCH   2   6
TORSDOF 2
