REMARK  0 active torsions:
REMARK  status: ('A' for Active; 'I' for Inactive)
ROOT
HETATM    1  C1  UNL     1     -32.471   7.257   1.656  1.00 20.00     0.047 C 
HETATM    2  C2  UNL     1     -32.565   8.054   2.869  1.00 20.00     0.042 C 
HETATM    3  C3  UNL     1     -34.868   5.826   4.710  1.00 20.00     0.010 C 
HETATM    4  C4  UNL     1     -34.654   4.559   4.340  1.00 20.00     0.114 C 
HETATM    5  C5  UNL     1     -33.092   6.075   1.555  1.00 20.00     0.142 C 
HETATM    6  C6  UNL     1     -33.503   7.797   3.797  1.00 20.00     0.107 C 
HETATM    7  C7  UNL     1     -33.894   5.641   2.709  1.00 20.00     0.087 C 
HETATM    8  C8  UNL     1     -34.519   6.725   3.579  1.00 20.00     0.127 C 
HETATM    9  N9  UNL     1     -34.071   4.420   3.107  1.00 20.00    -0.262 NA
HETATM   10  F10 UNL     1     -32.943   5.227   0.526  1.00 20.00    -0.204 F 
HETATM   11  F11 UNL     1     -33.555   8.557   4.912  1.00 20.00    -0.210 F 
ENDROOT
TORSDOF 0
