REMARK  0 active torsions:
REMARK  status: ('A' for Active; 'I' for Inactive)
ROOT
HETATM    1  C1  UNL     1     -32.453  10.095   0.204  1.00 20.00     0.013 C 
HETATM    2  C2  UNL     1     -32.521   9.224   1.026  1.00 20.00    -0.107 C 
HETATM    3  C3  UNL     1     -33.679   7.128   1.612  1.00 20.00     0.048 C 
HETATM    4  C4  UNL     1     -33.009   8.764   3.398  1.00 20.00     0.048 C 
HETATM    5  C5  UNL     1     -34.045   6.163   2.735  1.00 20.00     0.169 C 
HETATM    6  C6  UNL     1     -33.413   7.704   4.418  1.00 20.00     0.169 C 
HETATM    7  C7  UNL     1     -32.605   8.149   2.042  1.00 20.00     0.023 C 
HETATM    8  C8  UNL     1     -31.223   7.477   2.139  1.00 20.00     0.029 C 
HETATM    9  O9  UNL     1     -34.452   6.874   3.902  1.00 20.00    -0.391 OA
ENDROOT
TORSDOF 0
