REMARK  0 active torsions:
REMARK  status: ('A' for Active; 'I' for Inactive)
ROOT
HETATM    1  C1  UNL     1     -34.255   7.988   4.027  1.00 20.00     0.047 C 
HETATM    2  C2  UNL     1     -32.934   8.511   3.717  1.00 20.00     0.042 C 
HETATM    3  C3  UNL     1     -31.839   5.736   1.535  1.00 20.00     0.010 C 
HETATM    4  C4  UNL     1     -32.413   4.598   1.939  1.00 20.00     0.114 C 
HETATM    5  C5  UNL     1     -34.651   6.794   3.571  1.00 20.00     0.142 C 
HETATM    6  C6  UNL     1     -32.191   7.979   2.730  1.00 20.00     0.107 C 
HETATM    7  C7  UNL     1     -33.705   6.058   2.717  1.00 20.00     0.087 C 
HETATM    8  C8  UNL     1     -32.729   6.875   1.881  1.00 20.00     0.127 C 
HETATM    9  N9  UNL     1     -33.570   4.770   2.654  1.00 20.00    -0.262 NA
HETATM   10  F10 UNL     1     -35.796   6.189   3.924  1.00 20.00    -0.204 F 
HETATM   11  F11 UNL     1     -30.967   8.490   2.475  1.00 20.00    -0.210 F 
ENDROOT
TORSDOF 0
