REMARK  0 active torsions:
REMARK  status: ('A' for Active; 'I' for Inactive)
ROOT
HETATM    1  C1  UNL     1     -32.161   9.453   0.389  1.00 20.00     0.012 C 
HETATM    2  C2  UNL     1     -32.276   8.567   1.191  1.00 20.00    -0.110 C 
HETATM    3  C3  UNL     1     -32.782   6.161   1.537  1.00 20.00     0.045 C 
HETATM    4  C4  UNL     1     -33.395   5.419   2.704  1.00 20.00     0.169 C 
HETATM    5  C5  UNL     1     -33.576   7.702   3.126  1.00 20.00     0.184 C 
HETATM    6  C6  UNL     1     -32.416   7.487   2.168  1.00 20.00     0.090 C 
HETATM    7  O7  UNL     1     -34.047   6.403   3.516  1.00 20.00    -0.390 OA
ENDROOT
TORSDOF 0
