REMARK  1 active torsions:
REMARK  status: ('A' for Active; 'I' for Inactive)
REMARK    1  A    between atoms: C6_6  and  C8_8 
ROOT
HETATM    1  C1  UNL     1     -34.784   6.092   3.831  1.00 20.00     0.099 C 
HETATM    2  C2  UNL     1     -33.167   7.580   2.759  1.00 20.00     0.031 A 
HETATM    3  C3  UNL     1     -33.187   5.232   2.191  1.00 20.00     0.046 A 
HETATM    4  C4  UNL     1     -31.597   6.715   1.139  1.00 20.00     0.032 A 
HETATM    5  C5  UNL     1     -33.704   6.303   2.920  1.00 20.00     0.046 A 
HETATM    6  C6  UNL     1     -32.113   7.786   1.868  1.00 20.00    -0.041 A 
HETATM    7  C7  UNL     1     -32.134   5.438   1.300  1.00 20.00     0.036 A 
HETATM    8  N9  UNL     1     -35.662   5.921   4.571  1.00 20.00    -0.191 NA
HETATM    9 CL10 UNL     1     -31.498   4.118   0.397  1.00 20.00    -0.084 Cl
ENDROOT
BRANCH   6  10
HETATM   10  C8  UNL     1     -31.540   9.152   1.695  1.00 20.00     0.153 C 
HETATM   11 CL11 UNL     1     -32.076   9.868   0.158  1.00 20.00    -0.126 Cl
ENDBRANCH   6  10
TORSDOF 1
