REMARK  1 active torsions:
REMARK  status: ('A' for Active; 'I' for Inactive)
REMARK    1  A    between atoms: C1_1  and  C4_4 
ROOT
HETATM    1  C2  UNL     1     -33.523   8.379   3.207  1.00 20.00     0.038 C 
HETATM    2  C3  UNL     1     -33.990   7.203   4.042  1.00 20.00     0.169 C 
HETATM    3  C4  UNL     1     -33.222   6.398   1.999  1.00 20.00     0.190 C 
HETATM    4  C5  UNL     1     -32.525   7.741   2.246  1.00 20.00    -0.013 C 
HETATM    5  C6  UNL     1     -31.150   7.604   2.928  1.00 20.00     0.018 C 
HETATM    6  C7  UNL     1     -32.367   8.553   0.959  1.00 20.00     0.018 C 
HETATM    7  O9  UNL     1     -33.865   6.031   3.224  1.00 20.00    -0.378 OA
ENDROOT
BRANCH   3   8
HETATM    8  C1  UNL     1     -32.316   5.275   1.608  1.00 20.00     0.263 C 
HETATM    9  O8  UNL     1     -32.089   4.964   0.444  1.00 20.00    -0.304 OA
ENDBRANCH   3   8
TORSDOF 1
