REMARK  0 active torsions:
REMARK  status: ('A' for Active; 'I' for Inactive)
ROOT
HETATM    1  C1  UNL     1     -32.556   7.770   2.218  1.00 20.00     0.050 C 
HETATM    2  C2  UNL     1     -31.925   6.609   1.475  1.00 20.00     0.171 C 
HETATM    3  C3  UNL     1     -33.184   7.057   3.393  1.00 20.00     0.128 C 
HETATM    4  C4  UNL     1     -33.707   5.793   2.733  1.00 20.00     0.235 C 
HETATM    5  O5  UNL     1     -32.782   5.475   1.680  1.00 20.00    -0.369 OA
HETATM    6 CL6  UNL     1     -34.454   8.011   4.168  1.00 20.00    -0.121 Cl
HETATM    7 CL7  UNL     1     -33.822   4.442   3.872  1.00 20.00    -0.094 Cl
ENDROOT
TORSDOF 0
