REMARK  0 active torsions:
REMARK  status: ('A' for Active; 'I' for Inactive)
ROOT
HETATM    1  C1  UNL     1     -31.500   7.526   1.701  1.00 20.00     0.124 C 
HETATM    2  C2  UNL     1     -33.247   6.483   2.562  1.00 20.00     0.044 C 
HETATM    3  C3  UNL     1     -34.329   6.323   3.558  1.00 20.00     0.057 C 
HETATM    4  C4  UNL     1     -34.210   7.683   4.269  1.00 20.00     0.007 C 
HETATM    5  C5  UNL     1     -32.885   8.321   3.794  1.00 20.00     0.016 C 
HETATM    6  C6  UNL     1     -32.786   7.872   2.355  1.00 20.00     0.077 C 
HETATM    7  N7  UNL     1     -31.392   6.265   1.419  1.00 20.00    -0.166 NA
HETATM    8  N8  UNL     1     -32.529   5.580   1.979  1.00 20.00    -0.159 NA
ENDROOT
TORSDOF 0
