REMARK  0 active torsions:
REMARK  status: ('A' for Active; 'I' for Inactive)
ROOT
HETATM    1  C1  UNL     1     -34.418   7.294   4.173  1.00 20.00     0.004 A 
HETATM    2  C2  UNL     1     -33.398   7.227   3.322  1.00 20.00    -0.036 A 
HETATM    3  C3  UNL     1     -33.554   5.892   2.739  1.00 20.00     0.035 A 
HETATM    4  C4  UNL     1     -35.202   6.027   4.174  1.00 20.00     0.177 A 
HETATM    5  C5  UNL     1     -32.328   8.174   2.942  1.00 20.00     0.040 C 
HETATM    6  C6  UNL     1     -32.631   5.437   1.642  1.00 20.00     0.059 C 
HETATM    7  C7  UNL     1     -31.703   7.794   1.598  1.00 20.00     0.005 C 
HETATM    8  C8  UNL     1     -31.375   6.300   1.540  1.00 20.00     0.006 C 
HETATM    9  N9  UNL     1     -34.542   5.159   3.171  1.00 20.00    -0.290 NA
ENDROOT
TORSDOF 0
