REMARK  2 active torsions:
REMARK  status: ('A' for Active; 'I' for Inactive)
REMARK    1  A    between atoms: C7_7  and  O10_10 
REMARK    2  A    between atoms: C8_8  and  O10_10 
ROOT
HETATM    1  C1  UNL     1     -32.654   5.874   1.537  1.00 20.00     0.024 C 
HETATM    2  C2  UNL     1     -33.478   5.349   2.453  1.00 20.00     0.118 C 
HETATM    3  C3  UNL     1     -33.717   7.266   3.643  1.00 20.00     0.188 C 
HETATM    4  C4  UNL     1     -32.566   7.938   2.937  1.00 20.00     0.127 C 
HETATM    5  C7  UNL     1     -32.302   7.326   1.566  1.00 20.00     0.154 C 
HETATM    6  N9  UNL     1     -34.117   6.050   3.442  1.00 20.00    -0.237 NA
HETATM    7  F11 UNL     1     -34.347   7.969   4.595  1.00 20.00    -0.189 F 
ENDROOT
BRANCH   5   8
HETATM    8  O10 UNL     1     -33.075   8.017   0.588  1.00 20.00    -0.376 OA
BRANCH   8   9
HETATM    9  C8  UNL     1     -32.375   9.139   0.071  1.00 20.00     0.122 A 
HETATM   10  C5  UNL     1     -33.058   9.893  -1.035  1.00 20.00     0.034 A 
HETATM   11  C6  UNL     1     -32.989  10.482   0.343  1.00 20.00     0.034 A 
ENDBRANCH   8   9
ENDBRANCH   5   8
TORSDOF 2
