REMARK  0 active torsions:
REMARK  status: ('A' for Active; 'I' for Inactive)
ROOT
HETATM    1  C1  UNL     1     -31.696   7.522   1.100  1.00 20.00     0.002 C 
HETATM    2  C2  UNL     1     -32.437   8.292   1.912  1.00 20.00     0.028 C 
HETATM    3  C3  UNL     1     -31.662   6.075   1.217  1.00 20.00    -0.003 C 
HETATM    4  C4  UNL     1     -32.596   5.409   1.917  1.00 20.00    -0.011 C 
HETATM    5  C5  UNL     1     -34.047   6.867   4.726  1.00 20.00     0.132 C 
HETATM    6  C6  UNL     1     -34.146   5.797   3.934  1.00 20.00     0.020 C 
HETATM    7  C7  UNL     1     -33.230   7.549   2.911  1.00 20.00     0.046 C 
HETATM    8  C8  UNL     1     -33.729   6.151   2.551  1.00 20.00     0.102 C 
HETATM    9  N9  UNL     1     -33.498   7.963   4.113  1.00 20.00    -0.263 NA
HETATM   10 BR10 UNL     1     -34.838   4.148   4.345  1.00 20.00    -0.053 Br
ENDROOT
TORSDOF 0
