REMARK  1 active torsions:
REMARK  status: ('A' for Active; 'I' for Inactive)
REMARK    1  A    between atoms: C3_3  and  C6_6 
ROOT
HETATM    1  C1  UNL     1     -32.369   8.568   3.259  1.00 20.00     0.068 A 
HETATM    2  C2  UNL     1     -32.736   6.903   1.601  1.00 20.00     0.126 A 
HETATM    3  C3  UNL     1     -32.108   8.077   1.985  1.00 20.00    -0.023 A 
HETATM    4  C4  UNL     1     -33.237   7.880   4.099  1.00 20.00     0.212 A 
HETATM    5  C5  UNL     1     -33.815   6.715   3.621  1.00 20.00     0.175 A 
HETATM    6  N7  UNL     1     -33.586   6.207   2.389  1.00 20.00    -0.244 NA
HETATM    7  O8  UNL     1     -33.475   8.337   5.273  1.00 20.00    -0.285 OA
HETATM    8 CL9  UNL     1     -34.915   5.741   4.534  1.00 20.00    -0.058 Cl
ENDROOT
BRANCH   3   9
HETATM    9  C6  UNL     1     -31.184   8.788   1.062  1.00 20.00     0.154 C 
HETATM   10 CL10 UNL     1     -32.092   9.644  -0.207  1.00 20.00    -0.126 Cl
ENDBRANCH   3   9
TORSDOF 1
