REMARK  0 active torsions:
REMARK  status: ('A' for Active; 'I' for Inactive)
ROOT
HETATM    1  C1  UNL     1     -31.551   6.618   1.041  1.00 20.00     0.116 A 
HETATM    2  C2  UNL     1     -33.032   7.760   2.595  1.00 20.00     0.084 A 
HETATM    3  C3  UNL     1     -31.972   7.749   1.620  1.00 20.00     0.124 A 
HETATM    4  C4  UNL     1     -33.607   6.600   2.928  1.00 20.00     0.109 A 
HETATM    5  C5  UNL     1     -32.197   5.325   1.417  1.00 20.00     0.249 A 
HETATM    6  N6  UNL     1     -33.209   5.416   2.362  1.00 20.00    -0.314 N 
HETATM    7  O7  UNL     1     -31.829   4.273   0.900  1.00 20.00    -0.268 OA
HETATM    8  F8  UNL     1     -31.403   8.929   1.296  1.00 20.00    -0.206 F 
HETATM    9 CL9  UNL     1     -34.873   6.456   4.067  1.00 20.00    -0.064 Cl
HETATM   10  H12 UNL     1     -33.687   4.570   2.658  1.00 20.00     0.170 HD
ENDROOT
TORSDOF 0
