REMARK  0 active torsions:
REMARK  status: ('A' for Active; 'I' for Inactive)
ROOT
HETATM    1  C1  UNL     1     -32.081   5.997   1.677  1.00 20.00     0.057 A 
HETATM    2  C2  UNL     1     -32.906   3.943   2.967  1.00 20.00     0.008 A 
HETATM    3  C3  UNL     1     -34.895   5.670   4.006  1.00 20.00     0.143 A 
HETATM    4  C4  UNL     1     -32.875   5.203   2.552  1.00 20.00    -0.005 A 
HETATM    5  C5  UNL     1     -32.639   7.220   1.739  1.00 20.00     0.127 A 
HETATM    6  C6  UNL     1     -33.875   6.131   3.055  1.00 20.00     0.085 A 
HETATM    7  C7  UNL     1     -33.946   3.463   3.941  1.00 20.00     0.176 A 
HETATM    8  N8  UNL     1     -34.932   4.455   4.413  1.00 20.00    -0.296 NA
HETATM    9  N9  UNL     1     -33.745   7.337   2.578  1.00 20.00    -0.235 NA
HETATM   10 CL10 UNL     1     -32.065   8.573   0.868  1.00 20.00    -0.062 Cl
ENDROOT
TORSDOF 0
