REMARK  1 active torsions:
REMARK  status: ('A' for Active; 'I' for Inactive)
REMARK    1  A    between atoms: C1_1  and  C3_3 
ROOT
HETATM    1  C2  UNL     1     -33.753   7.824   3.780  1.00 20.00     0.098 A 
HETATM    2  C3  UNL     1     -33.799   7.052   2.478  1.00 20.00     0.133 A 
HETATM    3  C4  UNL     1     -34.355   6.470   3.728  1.00 20.00     0.255 A 
HETATM    4  F7  UNL     1     -33.740   5.409   4.355  1.00 20.00    -0.205 F 
HETATM    5  F8  UNL     1     -35.713   6.304   3.879  1.00 20.00    -0.205 F 
ENDROOT
BRANCH   2   6
HETATM    6  C1  UNL     1     -32.554   6.520   1.918  1.00 20.00     0.133 C 
HETATM    7  C5  UNL     1     -31.436   7.503   1.699  1.00 20.00     0.091 C 
HETATM    8  O6  UNL     1     -32.427   5.327   1.643  1.00 20.00    -0.298 OA
ENDBRANCH   2   6
TORSDOF 1
