REMARK  2 active torsions:
REMARK  status: ('A' for Active; 'I' for Inactive)
REMARK    1  A    between atoms: C7_7  and  O10_10 
REMARK    2  A    between atoms: C8_8  and  O10_10 
ROOT
HETATM    1  C1  UNL     1     -33.842   5.775   2.576  1.00 20.00     0.153 C 
HETATM    2  C2  UNL     1     -32.057   6.655   1.478  1.00 20.00     0.121 C 
HETATM    3  C3  UNL     1     -33.922   6.756   3.482  1.00 20.00     0.114 C 
HETATM    4  C4  UNL     1     -32.913   7.856   3.527  1.00 20.00     0.109 C 
HETATM    5  C7  UNL     1     -32.173   7.977   2.200  1.00 20.00     0.168 C 
HETATM    6  N9  UNL     1     -32.850   5.640   1.640  1.00 20.00    -0.272 NA
HETATM    7  F11 UNL     1     -34.944   6.758   4.365  1.00 20.00    -0.209 F 
ENDROOT
BRANCH   5   8
HETATM    8  O10 UNL     1     -32.898   8.833   1.327  1.00 20.00    -0.375 OA
BRANCH   8   9
HETATM    9  C8  UNL     1     -32.036   9.500   0.415  1.00 20.00     0.122 A 
HETATM   10  C5  UNL     1     -32.230   9.174  -1.039  1.00 20.00     0.034 A 
HETATM   11  C6  UNL     1     -32.687  10.498  -0.499  1.00 20.00     0.034 A 
ENDBRANCH   8   9
ENDBRANCH   5   8
TORSDOF 2
