REMARK  0 active torsions:
REMARK  status: ('A' for Active; 'I' for Inactive)
ROOT
HETATM    1  C1  UNL     1     -34.597   7.537   4.494  1.00 20.00     0.032 A 
HETATM    2  C2  UNL     1     -32.825   8.066   2.744  1.00 20.00     0.037 A 
HETATM    3  C3  UNL     1     -32.073   6.166   1.402  1.00 20.00     0.003 A 
HETATM    4  C4  UNL     1     -35.142   6.334   4.739  1.00 20.00     0.118 A 
HETATM    5  C5  UNL     1     -33.671   7.306   3.437  1.00 20.00    -0.008 A 
HETATM    6  C6  UNL     1     -32.009   7.476   1.702  1.00 20.00     0.031 A 
HETATM    7  C7  UNL     1     -33.794   5.863   3.162  1.00 20.00     0.048 A 
HETATM    8  C8  UNL     1     -32.980   5.187   2.098  1.00 20.00     0.088 A 
HETATM    9  N9  UNL     1     -34.675   5.292   3.945  1.00 20.00    -0.264 NA
HETATM   10 CL10 UNL     1     -30.933   8.519   0.842  1.00 20.00    -0.085 Cl
ENDROOT
TORSDOF 0
