REMARK  2 active torsions:
REMARK  status: ('A' for Active; 'I' for Inactive)
REMARK    1  A    between atoms: C4_4  and  C6_6 
REMARK    2  A    between atoms: C6_6  and  O7_7 
ROOT
HETATM    1  C1  UNL     1     -33.347   7.153   3.990  1.00 20.00     0.013 C 
HETATM    2  C2  UNL     1     -32.562   8.174   3.162  1.00 20.00     0.079 C 
HETATM    3  C3  UNL     1     -33.991   6.993   1.653  1.00 20.00     0.085 C 
HETATM    4  C4  UNL     1     -34.065   6.240   2.981  1.00 20.00     0.015 C 
HETATM    5  C5  UNL     1     -32.635   7.657   1.741  1.00 20.00     0.244 C 
HETATM    6  F8  UNL     1     -32.491   8.641   0.836  1.00 20.00    -0.206 F 
HETATM    7  F9  UNL     1     -31.656   6.749   1.524  1.00 20.00    -0.206 F 
ENDROOT
BRANCH   4   8
HETATM    8  C6  UNL     1     -35.488   5.897   3.390  1.00 20.00     0.168 C 
BRANCH   8   9
HETATM    9  O7  UNL     1     -35.454   5.217   4.634  1.00 20.00    -0.400 OA
HETATM   10  H19 UNL     1     -36.374   5.011   4.870  1.00 20.00     0.209 HD
ENDBRANCH   8   9
ENDBRANCH   4   8
TORSDOF 2
