REMARK  2 active torsions:
REMARK  status: ('A' for Active; 'I' for Inactive)
REMARK    1  A    between atoms: C1_1  and  C4_4 
REMARK    2  A    between atoms: C4_4  and  C5_5 
ROOT
HETATM    1  C2  UNL     1     -34.318   5.297   1.615  1.00 20.00     0.027 A 
HETATM    2  C3  UNL     1     -32.973   5.958   1.606  1.00 20.00     0.027 A 
HETATM    3  C4  UNL     1     -33.695   5.746   2.921  1.00 20.00     0.110 A 
ENDROOT
BRANCH   3   4
HETATM    4  C1  UNL     1     -33.167   4.686   3.813  1.00 20.00     0.249 C 
HETATM    5  O6  UNL     1     -33.860   3.787   4.279  1.00 20.00    -0.306 OA
ENDBRANCH   3   4
BRANCH   3   6
HETATM    6  C5  UNL     1     -34.289   6.964   3.581  1.00 20.00     0.401 C 
HETATM    7  F7  UNL     1     -33.374   7.588   4.350  1.00 20.00    -0.170 F 
HETATM    8  F8  UNL     1     -34.729   7.843   2.657  1.00 20.00    -0.170 F 
HETATM    9  F9  UNL     1     -35.332   6.624   4.365  1.00 20.00    -0.170 F 
ENDBRANCH   3   6
TORSDOF 2
