REMARK  2 active torsions:
REMARK  status: ('A' for Active; 'I' for Inactive)
REMARK    1  A    between atoms: C7_7  and  O10_10 
REMARK    2  A    between atoms: C8_8  and  O10_10 
ROOT
HETATM    1  C1  UNL     1     -33.958   6.592   3.068  1.00 20.00     0.155 C 
HETATM    2  C2  UNL     1     -33.770   5.066   3.048  1.00 20.00     0.084 C 
HETATM    3  C3  UNL     1     -32.862   5.268   1.814  1.00 20.00     0.047 C 
HETATM    4  C7  UNL     1     -32.827   6.801   2.044  1.00 20.00     0.191 C 
HETATM    5  O9  UNL     1     -34.711   7.338   3.656  1.00 20.00    -0.295 OA
ENDROOT
BRANCH   4   6
HETATM    6  O10 UNL     1     -33.197   7.612   0.944  1.00 20.00    -0.373 OA
BRANCH   6   7
HETATM    7  C8  UNL     1     -32.255   8.685   0.755  1.00 20.00     0.122 C 
HETATM    8  C5  UNL     1     -31.711   8.864  -0.680  1.00 20.00     0.032 C 
HETATM    9  C4  UNL     1     -32.812   9.917  -0.904  1.00 20.00     0.005 C 
HETATM   10  C6  UNL     1     -32.866  10.098   0.624  1.00 20.00     0.032 C 
ENDBRANCH   6   7
ENDBRANCH   4   6
TORSDOF 2
