REMARK  2 active torsions:
REMARK  status: ('A' for Active; 'I' for Inactive)
REMARK    1  A    between atoms: C1_1  and  O4_4 
REMARK    2  A    between atoms: C1_1  and  S5_5 
ROOT
HETATM    1  C1  UNL     1     -33.514   6.959   2.859  1.00 20.00     0.337 C 
HETATM    2  O3  UNL     1     -33.537   5.870   2.298  1.00 20.00    -0.251 OA
ENDROOT
BRANCH   1   3
HETATM    3  O4  UNL     1     -32.606   7.946   2.587  1.00 20.00    -0.317 OA
HETATM    4  C2  UNL     1     -31.639   7.644   1.576  1.00 20.00     0.214 C 
ENDBRANCH   1   3
BRANCH   1   5
HETATM    5  S5  UNL     1     -34.680   7.396   4.117  1.00 20.00     0.050 SA
HETATM    6 CL6  UNL     1     -35.805   5.703   4.204  1.00 20.00    -0.033 Cl
ENDBRANCH   1   5
TORSDOF 2
