REMARK  2 active torsions:
REMARK  status: ('A' for Active; 'I' for Inactive)
REMARK    1  A    between atoms: C7_7  and  P9_9 
REMARK    2  A    between atoms: C8_8  and  P9_9 
ROOT
HETATM    1  P9  UNL     1     -33.785   7.934   2.043  1.00 20.00    -0.001 P 
HETATM    2 CL10 UNL     1     -33.060   8.331   3.966  1.00 20.00    -0.094 Cl
ENDROOT
BRANCH   1   3
HETATM    3  C7  UNL     1     -33.364   6.101   1.944  1.00 20.00    -0.014 C 
HETATM    4  C1  UNL     1     -31.844   5.946   1.794  1.00 20.00     0.021 C 
HETATM    5  C2  UNL     1     -33.832   5.412   3.234  1.00 20.00     0.021 C 
HETATM    6  C3  UNL     1     -34.073   5.476   0.734  1.00 20.00     0.021 C 
ENDBRANCH   1   3
BRANCH   1   7
HETATM    7  C8  UNL     1     -32.408   8.569   1.021  1.00 20.00    -0.014 C 
HETATM    8  C4  UNL     1     -32.505   7.956  -0.383  1.00 20.00     0.021 C 
HETATM    9  C5  UNL     1     -32.519  10.098   0.930  1.00 20.00     0.021 C 
HETATM   10  C6  UNL     1     -31.070   8.182   1.667  1.00 20.00     0.021 C 
ENDBRANCH   1   7
TORSDOF 2
