REMARK  1 active torsions:
REMARK  status: ('A' for Active; 'I' for Inactive)
REMARK    1  A    between atoms: C1_1  and  C4_4 
ROOT
HETATM    1  C2  UNL     1     -31.261   7.094   2.092  1.00 20.00     0.038 C 
HETATM    2  C3  UNL     1     -31.580   5.915   1.194  1.00 20.00     0.169 C 
HETATM    3  C4  UNL     1     -33.597   6.962   1.747  1.00 20.00     0.190 C 
HETATM    4  C5  UNL     1     -32.479   7.995   1.925  1.00 20.00    -0.013 C 
HETATM    5  C6  UNL     1     -32.346   8.841   0.643  1.00 20.00     0.018 C 
HETATM    6  C7  UNL     1     -32.668   8.943   3.112  1.00 20.00     0.018 C 
HETATM    7  O9  UNL     1     -33.009   5.804   1.134  1.00 20.00    -0.378 OA
ENDROOT
BRANCH   3   8
HETATM    8  C1  UNL     1     -34.188   6.443   3.022  1.00 20.00     0.263 C 
HETATM    9  O8  UNL     1     -35.221   6.881   3.516  1.00 20.00    -0.304 OA
ENDBRANCH   3   8
TORSDOF 1
