REMARK  0 active torsions:
REMARK  status: ('A' for Active; 'I' for Inactive)
ROOT
HETATM    1  C1  UNL     1     -34.717   5.787   3.789  1.00 20.00     0.006 A 
HETATM    2  C2  UNL     1     -33.704   6.038   2.965  1.00 20.00    -0.008 A 
HETATM    3  C3  UNL     1     -33.317   7.400   3.333  1.00 20.00     0.038 A 
HETATM    4  C4  UNL     1     -34.962   6.942   4.700  1.00 20.00     0.177 A 
HETATM    5  C5  UNL     1     -33.034   5.289   1.880  1.00 20.00     0.310 C 
HETATM    6  C6  UNL     1     -32.235   8.087   2.549  1.00 20.00     0.089 C 
HETATM    7  C7  UNL     1     -31.433   7.096   1.700  1.00 20.00     0.276 C 
HETATM    8  N8  UNL     1     -33.974   7.973   4.301  1.00 20.00    -0.290 NA
HETATM    9  N9  UNL     1     -32.300   6.170   0.959  1.00 20.00     0.087 N 
HETATM   10  H19 UNL     1     -31.728   5.597   0.339  1.00 20.00     0.316 HD
ENDROOT
TORSDOF 0
