REMARK  2 active torsions:
REMARK  status: ('A' for Active; 'I' for Inactive)
REMARK    1  A    between atoms: C4_4  and  O9_9 
REMARK    2  A    between atoms: C7_7  and  O9_9 
ROOT
HETATM    1  C1  UNL     1     -33.756   6.786   3.321  1.00 20.00     0.155 C 
HETATM    2  C2  UNL     1     -33.793   5.248   3.298  1.00 20.00     0.084 C 
HETATM    3  C3  UNL     1     -32.910   5.319   2.031  1.00 20.00     0.047 C 
HETATM    4  C4  UNL     1     -33.143   6.847   1.909  1.00 20.00     0.191 C 
HETATM    5  O8  UNL     1     -34.078   7.622   4.138  1.00 20.00    -0.295 OA
ENDROOT
BRANCH   4   6
HETATM    6  O9  UNL     1     -31.969   7.669   1.826  1.00 20.00    -0.374 OA
BRANCH   6   7
HETATM    7  C7  UNL     1     -32.086   8.619   0.783  1.00 20.00     0.114 C 
HETATM    8  C5  UNL     1     -32.747   9.878   1.324  1.00 20.00     0.039 C 
HETATM    9  C6  UNL     1     -30.708   8.905   0.207  1.00 20.00     0.039 C 
ENDBRANCH   6   7
ENDBRANCH   4   6
TORSDOF 2
