REMARK  1 active torsions:
REMARK  status: ('A' for Active; 'I' for Inactive)
REMARK    1  A    between atoms: C4_4  and  C6_6 
ROOT
HETATM    1  C1  UNL     1     -34.286   5.495   3.128  1.00 20.00     0.070 A 
HETATM    2  C2  UNL     1     -33.695   7.784   3.387  1.00 20.00     0.129 A 
HETATM    3  C3  UNL     1     -35.248   6.871   4.812  1.00 20.00     0.170 A 
HETATM    4  C4  UNL     1     -33.535   6.587   2.708  1.00 20.00     0.027 A 
HETATM    5  C5  UNL     1     -35.161   5.631   4.200  1.00 20.00     0.190 A 
HETATM    6  N7  UNL     1     -34.535   7.954   4.432  1.00 20.00    -0.268 NA
HETATM    7  O8  UNL     1     -35.864   4.642   4.608  1.00 20.00    -0.287 OA
ENDROOT
BRANCH   4   8
HETATM    8  C6  UNL     1     -32.590   6.475   1.565  1.00 20.00     0.388 C 
HETATM    9  F9  UNL     1     -32.070   5.220   1.483  1.00 20.00    -0.209 F 
HETATM   10  F10 UNL     1     -31.532   7.316   1.723  1.00 20.00    -0.209 F 
ENDBRANCH   4   8
TORSDOF 1
