REMARK  1 active torsions:
REMARK  status: ('A' for Active; 'I' for Inactive)
REMARK    1  A    between atoms: C1_1  and  C4_4 
ROOT
HETATM    1  C2  UNL     1     -32.937   6.452   1.375  1.00 20.00     0.026 C 
HETATM    2  C3  UNL     1     -32.208   7.912   3.205  1.00 20.00     0.026 C 
HETATM    3  C4  UNL     1     -31.910   7.524   1.753  1.00 20.00     0.088 C 
HETATM    4  C5  UNL     1     -34.116   6.716   2.268  1.00 20.00     0.069 A 
HETATM    5  C6  UNL     1     -33.668   7.613   3.391  1.00 20.00     0.069 A 
HETATM    6  C7  UNL     1     -34.150   6.235   3.674  1.00 20.00     0.252 A 
HETATM    7  F10 UNL     1     -33.288   5.256   4.111  1.00 20.00    -0.205 F 
HETATM    8  F11 UNL     1     -35.354   6.037   4.312  1.00 20.00    -0.205 F 
ENDROOT
BRANCH   3   9
HETATM    9  C1  UNL     1     -32.128   8.742   0.869  1.00 20.00     0.177 C 
HETATM   10  O8  UNL     1     -33.283   9.248   0.926  1.00 20.00    -0.648 OA
HETATM   11  O9  UNL     1     -31.122   9.091   0.190  1.00 20.00    -0.648 OA
ENDBRANCH   3   9
TORSDOF 1
