REMARK  1 active torsions:
REMARK  status: ('A' for Active; 'I' for Inactive)
REMARK    1  A    between atoms: C1_1  and  C5_5 
ROOT
HETATM    1  C3  UNL     1     -34.359   7.591   4.080  1.00 20.00     0.009 A 
HETATM    2  C4  UNL     1     -33.605   7.000   2.927  1.00 20.00     0.009 A 
HETATM    3  C5  UNL     1     -34.687   6.202   3.603  1.00 20.00     0.009 A 
ENDROOT
BRANCH   3   4
HETATM    4  C1  UNL     1     -34.313   5.066   4.431  1.00 20.00    -0.015 C 
HETATM    5  C2  UNL     1     -33.562   4.049   3.994  1.00 20.00     0.052 C 
HETATM    6 BR6  UNL     1     -33.073   2.591   5.031  1.00 20.00    -0.064 Br
ENDBRANCH   3   4
TORSDOF 1
