REMARK  1 active torsions:
REMARK  status: ('A' for Active; 'I' for Inactive)
REMARK    1  A    between atoms: C5_5  and  C7_7 
ROOT
HETATM    1  C1  UNL     1     -32.932   8.585   3.193  1.00 20.00     0.071 A 
HETATM    2  C2  UNL     1     -33.465   6.021   2.425  1.00 20.00     0.126 A 
HETATM    3  C3  UNL     1     -34.011   6.477   3.615  1.00 20.00    -0.006 A 
HETATM    4  C4  UNL     1     -33.734   7.785   3.998  1.00 20.00     0.125 A 
HETATM    5  C5  UNL     1     -32.434   8.035   2.023  1.00 20.00     0.051 A 
HETATM    6  C6  UNL     1     -34.865   5.594   4.452  1.00 20.00     0.053 C 
HETATM    7  N8  UNL     1     -32.681   6.769   1.617  1.00 20.00    -0.264 NA
HETATM    8  F9  UNL     1     -34.235   8.280   5.138  1.00 20.00    -0.205 F 
ENDROOT
BRANCH   5   9
HETATM    9  C7  UNL     1     -31.569   8.866   1.135  1.00 20.00     0.173 C 
HETATM   10 CL10 UNL     1     -32.472   9.398  -0.301  1.00 20.00    -0.124 Cl
ENDBRANCH   5   9
TORSDOF 1
