REMARK  0 active torsions:
REMARK  status: ('A' for Active; 'I' for Inactive)
ROOT
HETATM    1  C1  UNL     1     -33.437   6.460   1.449  1.00 20.00     0.029 C 
HETATM    2  C2  UNL     1     -33.050   7.824   3.081  1.00 20.00     0.029 C 
HETATM    3  C3  UNL     1     -33.299   5.341   3.785  1.00 20.00     0.179 A 
HETATM    4  C4  UNL     1     -35.118   6.281   3.431  1.00 20.00     0.179 A 
HETATM    5  C5  UNL     1     -32.315   7.499   1.746  1.00 20.00     0.059 C 
HETATM    6  C6  UNL     1     -33.730   6.490   2.926  1.00 20.00     0.005 A 
HETATM    7  O7  UNL     1     -34.666   5.172   4.262  1.00 20.00    -0.389 OA
HETATM    8 BR8  UNL     1     -32.164   8.958   0.490  1.00 20.00    -0.091 Br
ENDROOT
TORSDOF 0
