REMARK  0 active torsions:
REMARK  status: ('A' for Active; 'I' for Inactive)
ROOT
HETATM    1  C1  UNL     1     -34.781   5.414   4.113  1.00 20.00    -0.025 C 
HETATM    2  C2  UNL     1     -34.668   6.614   4.716  1.00 20.00    -0.025 C 
HETATM    3  C3  UNL     1     -32.185   5.747   1.624  1.00 20.00    -0.024 C 
HETATM    4  C4  UNL     1     -31.396   6.848   1.631  1.00 20.00    -0.025 C 
HETATM    5  C5  UNL     1     -35.565   7.036   2.684  1.00 20.00     0.018 C 
HETATM    6  C6  UNL     1     -34.846   5.650   2.622  1.00 20.00     0.016 C 
HETATM    7  C7  UNL     1     -34.519   7.666   3.617  1.00 20.00     0.014 C 
HETATM    8  C8  UNL     1     -33.554   6.186   1.983  1.00 20.00     0.021 C 
HETATM    9  C9  UNL     1     -32.107   8.075   2.223  1.00 20.00     0.009 C 
HETATM   10  C10 UNL     1     -33.159   7.298   2.992  1.00 20.00     0.009 C 
HETATM   11  C11 UNL     1     -32.623   9.068   1.196  1.00 20.00     0.014 C 
ENDROOT
TORSDOF 0
