REMARK  0 active torsions:
REMARK  status: ('A' for Active; 'I' for Inactive)
ROOT
HETATM    1  C1  UNL     1     -35.627   6.534   3.552  1.00 20.00     0.011 A 
HETATM    2  C2  UNL     1     -34.612   5.449   3.925  1.00 20.00     0.011 A 
HETATM    3  C3  UNL     1     -33.187   7.664   3.282  1.00 20.00     0.027 A 
HETATM    4  C4  UNL     1     -33.482   6.950   1.953  1.00 20.00     0.067 A 
HETATM    5  C5  UNL     1     -34.219   6.637   3.173  1.00 20.00    -0.026 A 
HETATM    6 BR6  UNL     1     -32.179   5.716   1.309  1.00 20.00    -0.090 Br
ENDROOT
TORSDOF 0
