REMARK  0 active torsions:
REMARK  status: ('A' for Active; 'I' for Inactive)
ROOT
HETATM    1  C1  UNL     1     -31.326   7.544  -0.318  1.00 20.00     0.002 C 
HETATM    2  C2  UNL     1     -31.536   6.408   0.366  1.00 20.00     0.030 C 
HETATM    3  C3  UNL     1     -31.878   8.823   0.100  1.00 20.00    -0.001 C 
HETATM    4  C4  UNL     1     -32.364   9.000   1.341  1.00 20.00     0.006 C 
HETATM    5  C5  UNL     1     -32.344   6.576   1.582  1.00 20.00     0.066 C 
HETATM    6  C6  UNL     1     -33.814   6.495   3.062  1.00 20.00     0.219 C 
HETATM    7  C7  UNL     1     -32.301   7.885   2.329  1.00 20.00     0.186 C 
HETATM    8  N8  UNL     1     -33.169   5.743   2.113  1.00 20.00    -0.221 NA
HETATM    9  N9  UNL     1     -33.473   7.742   3.211  1.00 20.00    -0.245 NA
HETATM   10 CL10 UNL     1     -35.083   5.804   3.954  1.00 20.00    -0.041 Cl
ENDROOT
TORSDOF 0
