REMARK  0 active torsions:
REMARK  status: ('A' for Active; 'I' for Inactive)
ROOT
HETATM    1  C1  UNL     1     -34.386   7.366   3.711  1.00 20.00     0.032 C 
HETATM    2  C2  UNL     1     -34.771   6.197   4.233  1.00 20.00     0.028 C 
HETATM    3  C3  UNL     1     -32.070   6.256   1.149  1.00 20.00     0.026 C 
HETATM    4  C4  UNL     1     -31.651   7.483   1.473  1.00 20.00     0.115 C 
HETATM    5  C5  UNL     1     -33.360   7.252   2.669  1.00 20.00     0.062 C 
HETATM    6  C6  UNL     1     -34.056   4.955   3.802  1.00 20.00     0.026 C 
HETATM    7  C7  UNL     1     -33.355   5.988   1.844  1.00 20.00     0.184 C 
HETATM    8  C8  UNL     1     -34.163   3.773   4.731  1.00 20.00     0.070 C 
HETATM    9  N9  UNL     1     -32.437   8.121   2.396  1.00 20.00    -0.263 NA
HETATM   10  N10 UNL     1     -33.348   4.829   2.725  1.00 20.00    -0.279 NA
ENDROOT
TORSDOF 0
