REMARK  0 active torsions:
REMARK  status: ('A' for Active; 'I' for Inactive)
ROOT
HETATM    1  C1  UNL     1     -31.771   9.337   0.342  1.00 20.00     0.147 A 
HETATM    2  C2  UNL     1     -32.418   8.436   1.206  1.00 20.00    -0.015 A 
HETATM    3  C3  UNL     1     -33.438   9.170   1.762  1.00 20.00     0.036 A 
HETATM    4  C4  UNL     1     -32.158   7.019   1.553  1.00 20.00     0.043 C 
HETATM    5  C5  UNL     1     -34.454   8.697   2.736  1.00 20.00     0.068 C 
HETATM    6  C6  UNL     1     -33.374   6.404   2.279  1.00 20.00     0.014 C 
HETATM    7  C7  UNL     1     -34.012   7.335   3.362  1.00 20.00    -0.042 C 
HETATM    8  C8  UNL     1     -35.251   6.635   3.950  1.00 20.00     0.015 C 
HETATM    9  C9  UNL     1     -33.013   7.580   4.511  1.00 20.00     0.015 C 
HETATM   10  N10 UNL     1     -32.339  10.549   0.345  1.00 20.00    -0.186 NA
HETATM   11  N11 UNL     1     -33.354  10.416   1.220  1.00 20.00    -0.282 N 
HETATM   12  H25 UNL     1     -33.945  11.219   1.398  1.00 20.00     0.189 HD
ENDROOT
TORSDOF 0
