REMARK  0 active torsions:
REMARK  status: ('A' for Active; 'I' for Inactive)
ROOT
HETATM    1  C1  UNL     1     -33.621   5.516   2.631  1.00 20.00     0.008 C 
HETATM    2  C2  UNL     1     -32.790   5.970   1.680  1.00 20.00     0.028 C 
HETATM    3  C3  UNL     1     -33.847   7.659   3.768  1.00 20.00    -0.005 C 
HETATM    4  C4  UNL     1     -32.708   9.527   2.443  1.00 20.00     0.015 C 
HETATM    5  C5  UNL     1     -34.283   6.395   3.593  1.00 20.00    -0.065 C 
HETATM    6  C6  UNL     1     -32.492   9.458   1.122  1.00 20.00     0.028 C 
HETATM    7  C7  UNL     1     -32.583   7.430   1.690  1.00 20.00     0.046 C 
HETATM    8  C8  UNL     1     -32.654   8.157   3.022  1.00 20.00     0.085 C 
HETATM    9  C9  UNL     1     -35.433   5.818   4.359  1.00 20.00     0.048 C 
HETATM   10  C10 UNL     1     -32.406  10.604   0.179  1.00 20.00     0.070 C 
HETATM   11  N11 UNL     1     -32.395   8.173   0.643  1.00 20.00    -0.258 NA
ENDROOT
TORSDOF 0
