REMARK  0 active torsions:
REMARK  status: ('A' for Active; 'I' for Inactive)
ROOT
HETATM    1  C1  UNL     1     -34.304   5.268   3.286  1.00 20.00     0.002 C 
HETATM    2  C2  UNL     1     -33.261   5.477   2.469  1.00 20.00     0.028 C 
HETATM    3  C3  UNL     1     -35.011   6.353   3.947  1.00 20.00    -0.003 C 
HETATM    4  C4  UNL     1     -34.475   7.583   4.031  1.00 20.00    -0.012 C 
HETATM    5  C5  UNL     1     -32.880   9.092   2.717  1.00 20.00     0.027 C 
HETATM    6  C6  UNL     1     -32.423   8.779   1.499  1.00 20.00     0.100 C 
HETATM    7  C7  UNL     1     -32.874   6.894   2.316  1.00 20.00     0.047 C 
HETATM    8  C8  UNL     1     -33.109   7.839   3.486  1.00 20.00     0.085 C 
HETATM    9  N9  UNL     1     -32.396   7.433   1.237  1.00 20.00    -0.245 NA
HETATM   10 BR10 UNL     1     -31.922   9.981   0.191  1.00 20.00    -0.029 Br
ENDROOT
TORSDOF 0
