REMARK  0 active torsions:
REMARK  status: ('A' for Active; 'I' for Inactive)
ROOT
HETATM    1  C1  UNL     1     -32.451   8.090   2.829  1.00 20.00     0.031 C 
HETATM    2  C2  UNL     1     -32.481   7.683   1.364  1.00 20.00     0.075 C 
HETATM    3  C3  UNL     1     -33.810   6.078   3.065  1.00 20.00     0.094 C 
HETATM    4  C4  UNL     1     -33.737   7.550   3.441  1.00 20.00     0.092 C 
HETATM    5  S5  UNL     1     -33.204   6.017   1.354  1.00 20.00    -0.168 SA
HETATM    6 CL6  UNL     1     -33.747   7.761   5.205  1.00 20.00    -0.124 Cl
ENDROOT
TORSDOF 0
