REMARK  1 active torsions:
REMARK  status: ('A' for Active; 'I' for Inactive)
REMARK    1  A    between atoms: C3_3  and  C7_7 
ROOT
HETATM    1  C1  UNL     1     -32.500   7.043   1.421  1.00 20.00     0.024 A 
HETATM    2  C2  UNL     1     -33.248   8.523   3.126  1.00 20.00     0.131 A 
HETATM    3  C3  UNL     1     -32.555   8.331   1.942  1.00 20.00     0.024 A 
HETATM    4  C4  UNL     1     -33.131   6.001   2.091  1.00 20.00    -0.021 A 
HETATM    5  C5  UNL     1     -33.799   6.297   3.269  1.00 20.00     0.131 A 
HETATM    6  C6  UNL     1     -33.069   4.622   1.529  1.00 20.00     0.051 C 
HETATM    7  N8  UNL     1     -33.874   7.536   3.805  1.00 20.00    -0.248 NA
HETATM    8 CL11 UNL     1     -34.616   5.095   4.188  1.00 20.00    -0.062 Cl
ENDROOT
BRANCH   3   9
HETATM    9  C7  UNL     1     -31.888   9.467   1.250  1.00 20.00     0.388 C 
HETATM   10  F9  UNL     1     -32.561  10.630   1.464  1.00 20.00    -0.209 F 
HETATM   11  F10 UNL     1     -31.874   9.276  -0.096  1.00 20.00    -0.209 F 
ENDBRANCH   3   9
TORSDOF 1
