REMARK  1 active torsions:
REMARK  status: ('A' for Active; 'I' for Inactive)
REMARK    1  A    between atoms: C4_4  and  C8_8 
ROOT
HETATM    1  C1  UNL     1     -33.928   5.263   2.928  1.00 20.00     0.079 A 
HETATM    2  C2  UNL     1     -33.504   7.740   2.887  1.00 20.00     0.088 A 
HETATM    3  C3  UNL     1     -33.004   5.184   1.969  1.00 20.00     0.146 A 
HETATM    4  C4  UNL     1     -32.592   7.531   1.920  1.00 20.00     0.064 A 
HETATM    5  C5  UNL     1     -34.246   6.599   3.466  1.00 20.00     0.176 A 
HETATM    6  O10 UNL     1     -35.082   6.755   4.347  1.00 20.00    -0.288 OA
HETATM    7  O11 UNL     1     -32.322   6.251   1.438  1.00 20.00    -0.326 OA
ENDROOT
BRANCH   4   8
HETATM    8  C8  UNL     1     -31.822   8.637   1.304  1.00 20.00     0.006 A 
HETATM    9  C6  UNL     1     -32.621   9.711   0.608  1.00 20.00     0.017 A 
HETATM   10  C7  UNL     1     -31.844   8.719  -0.202  1.00 20.00     0.017 A 
HETATM   11  C9  UNL     1     -30.566   9.033   2.022  1.00 20.00     0.022 C 
ENDBRANCH   4   8
TORSDOF 1
