REMARK  0 active torsions:
REMARK  status: ('A' for Active; 'I' for Inactive)
ROOT
HETATM    1  C1  UNL     1     -32.298   6.225   1.122  1.00 20.00     0.002 C 
HETATM    2  C2  UNL     1     -33.008   5.433   1.940  1.00 20.00     0.028 C 
HETATM    3  C3  UNL     1     -32.184   7.659   1.326  1.00 20.00    -0.003 C 
HETATM    4  C4  UNL     1     -32.511   8.224   2.501  1.00 20.00    -0.012 C 
HETATM    5  C5  UNL     1     -34.107   7.823   4.460  1.00 20.00     0.007 C 
HETATM    6  C6  UNL     1     -35.053   6.878   4.442  1.00 20.00     0.114 C 
HETATM    7  C7  UNL     1     -33.642   6.133   3.075  1.00 20.00     0.045 C 
HETATM    8  C8  UNL     1     -32.952   7.367   3.641  1.00 20.00     0.084 C 
HETATM    9  N9  UNL     1     -34.783   5.823   3.612  1.00 20.00    -0.265 NA
ENDROOT
TORSDOF 0
