REMARK  0 active torsions:
REMARK  status: ('A' for Active; 'I' for Inactive)
ROOT
HETATM    1  C1  UNL     1     -31.496   7.307   1.684  1.00 20.00    -0.025 C 
HETATM    2  C2  UNL     1     -31.436   5.965   1.767  1.00 20.00    -0.025 C 
HETATM    3  C3  UNL     1     -34.422   7.899   3.697  1.00 20.00    -0.024 C 
HETATM    4  C4  UNL     1     -35.022   6.860   4.324  1.00 20.00    -0.025 C 
HETATM    5  C5  UNL     1     -33.217   6.414   0.446  1.00 20.00     0.018 C 
HETATM    6  C6  UNL     1     -32.909   7.684   1.301  1.00 20.00     0.016 C 
HETATM    7  C7  UNL     1     -32.854   5.430   1.570  1.00 20.00     0.014 C 
HETATM    8  C8  UNL     1     -33.974   7.403   2.372  1.00 20.00     0.021 C 
HETATM    9  C9  UNL     1     -34.845   5.545   3.545  1.00 20.00     0.009 C 
HETATM   10  C10 UNL     1     -33.584   5.968   2.817  1.00 20.00     0.009 C 
HETATM   11  C11 UNL     1     -34.634   4.331   4.434  1.00 20.00     0.014 C 
ENDROOT
TORSDOF 0
