REMARK  0 active torsions:
REMARK  status: ('A' for Active; 'I' for Inactive)
ROOT
HETATM    1  C1  UNL     1     -32.826   5.330   1.959  1.00 20.00    -0.026 C 
HETATM    2  C2  UNL     1     -32.155   6.425   1.577  1.00 20.00    -0.025 C 
HETATM    3  C3  UNL     1     -34.014   6.681   3.728  1.00 20.00     0.012 C 
HETATM    4  C4  UNL     1     -33.957   5.355   2.951  1.00 20.00     0.004 C 
HETATM    5  C5  UNL     1     -32.476   7.819   2.062  1.00 20.00     0.007 C 
HETATM    6  C6  UNL     1     -33.844   7.889   2.792  1.00 20.00    -0.011 C 
HETATM    7  C7  UNL     1     -33.854   4.181   3.925  1.00 20.00     0.014 C 
HETATM    8  C8  UNL     1     -32.424   8.795   0.881  1.00 20.00     0.014 C 
HETATM    9  C9  UNL     1     -34.002   9.188   3.587  1.00 20.00     0.010 C 
ENDROOT
TORSDOF 0
