REMARK  0 active torsions:
REMARK  status: ('A' for Active; 'I' for Inactive)
ROOT
HETATM    1  C1  UNL     1     -31.904   7.849  -0.050  1.00 20.00     0.002 C 
HETATM    2  C2  UNL     1     -32.131   6.651   0.510  1.00 20.00     0.028 C 
HETATM    3  C3  UNL     1     -32.300   9.096   0.582  1.00 20.00    -0.003 C 
HETATM    4  C4  UNL     1     -32.623   9.144   1.887  1.00 20.00    -0.012 C 
HETATM    5  C5  UNL     1     -33.625   7.629   3.688  1.00 20.00     0.032 C 
HETATM    6  C6  UNL     1     -34.141   6.426   3.414  1.00 20.00     0.123 C 
HETATM    7  C7  UNL     1     -32.791   6.705   1.830  1.00 20.00     0.047 C 
HETATM    8  C8  UNL     1     -32.529   7.911   2.722  1.00 20.00     0.086 C 
HETATM    9  N9  UNL     1     -33.634   5.831   2.288  1.00 20.00    -0.241 NA
HETATM   10 CL10 UNL     1     -35.382   5.683   4.317  1.00 20.00    -0.063 Cl
ENDROOT
TORSDOF 0
