REMARK  2 active torsions:
REMARK  status: ('A' for Active; 'I' for Inactive)
REMARK    1  A    between atoms: C6_6  and  C7_7 
REMARK    2  A    between atoms: C7_7  and  N8_8 
ROOT
HETATM    1  C1  UNL     1     -32.299   8.787   0.776  1.00 20.00     0.332 C 
HETATM    2  N8  UNL     1     -31.851   7.871   1.361  1.00 20.00    -0.247 NA
HETATM    3  O9  UNL     1     -32.746   9.704   0.191  1.00 20.00    -0.260 OA
ENDROOT
BRANCH   2   4
HETATM    4  C7  UNL     1     -32.751   6.725   1.472  1.00 20.00     0.161 C 
BRANCH   4   5
HETATM    5  C6  UNL     1     -32.995   6.434   2.945  1.00 20.00     0.028 C 
HETATM    6  C3  UNL     1     -33.906   5.267   3.171  1.00 20.00    -0.024 C 
HETATM    7  C2  UNL     1     -34.822   5.527   4.109  1.00 20.00    -0.030 C 
HETATM    8  C4  UNL     1     -34.679   6.906   4.657  1.00 20.00     0.027 C 
HETATM    9  C5  UNL     1     -33.745   7.575   3.648  1.00 20.00     0.014 C 
ENDBRANCH   4   5
ENDBRANCH   2   4
TORSDOF 2
