REMARK  0 active torsions:
REMARK  status: ('A' for Active; 'I' for Inactive)
ROOT
HETATM    1  C1  UNL     1     -34.389   7.120   4.736  1.00 20.00    -0.025 C 
HETATM    2  C2  UNL     1     -34.042   8.413   4.655  1.00 20.00    -0.025 C 
HETATM    3  C3  UNL     1     -32.873   6.030   1.385  1.00 20.00    -0.024 C 
HETATM    4  C4  UNL     1     -32.371   6.964   0.574  1.00 20.00    -0.025 C 
HETATM    5  C5  UNL     1     -34.979   7.851   2.631  1.00 20.00     0.018 C 
HETATM    6  C6  UNL     1     -34.451   6.587   3.322  1.00 20.00     0.016 C 
HETATM    7  C7  UNL     1     -33.863   8.741   3.186  1.00 20.00     0.014 C 
HETATM    8  C8  UNL     1     -32.996   6.504   2.797  1.00 20.00     0.021 C 
HETATM    9  C9  UNL     1     -32.048   8.244   1.285  1.00 20.00     0.009 C 
HETATM   10  C10 UNL     1     -32.566   8.016   2.724  1.00 20.00     0.009 C 
HETATM   11  C11 UNL     1     -32.592   9.474   0.573  1.00 20.00     0.014 C 
ENDROOT
TORSDOF 0
