REMARK  0 active torsions:
REMARK  status: ('A' for Active; 'I' for Inactive)
ROOT
HETATM    1  C1  UNL     1     -34.345   7.866   4.315  1.00 20.00     0.032 A 
HETATM    2  C2  UNL     1     -32.676   8.401   2.372  1.00 20.00     0.040 A 
HETATM    3  C3  UNL     1     -32.134   6.383   1.204  1.00 20.00     0.142 A 
HETATM    4  C4  UNL     1     -34.890   6.659   4.696  1.00 20.00     0.093 A 
HETATM    5  C5  UNL     1     -33.498   7.621   3.202  1.00 20.00     0.013 A 
HETATM    6  C6  UNL     1     -31.982   7.755   1.351  1.00 20.00     0.052 A 
HETATM    7  C7  UNL     1     -33.558   6.255   2.942  1.00 20.00     0.139 A 
HETATM    8  C8  UNL     1     -34.746   4.286   3.936  1.00 20.00     0.157 C 
HETATM    9  N9  UNL     1     -32.910   5.583   1.972  1.00 20.00    -0.241 NA
HETATM   10  N10 UNL     1     -34.406   5.689   3.857  1.00 20.00    -0.345 N 
HETATM   11 CL11 UNL     1     -30.959   8.643   0.295  1.00 20.00    -0.083 Cl
ENDROOT
TORSDOF 0
