REMARK  1 active torsions:
REMARK  status: ('A' for Active; 'I' for Inactive)
REMARK    1  A    between atoms: C6_6  and  C8_8 
ROOT
HETATM    1  C1  UNL     1     -31.433   8.862   0.444  1.00 20.00     0.008 C 
HETATM    2  C2  UNL     1     -31.144   7.561   0.596  1.00 20.00     0.028 C 
HETATM    3  C3  UNL     1     -33.186   8.899   2.136  1.00 20.00    -0.005 C 
HETATM    4  C4  UNL     1     -33.424   5.432   2.272  1.00 20.00     0.128 C 
HETATM    5  C5  UNL     1     -32.569   9.505   1.101  1.00 20.00    -0.065 C 
HETATM    6  C6  UNL     1     -33.671   6.531   2.989  1.00 20.00     0.011 C 
HETATM    7  C7  UNL     1     -32.055   6.830   1.496  1.00 20.00     0.046 C 
HETATM    8  C9  UNL     1     -32.687   7.591   2.656  1.00 20.00     0.098 C 
HETATM    9  C10 UNL     1     -32.984  10.846   0.579  1.00 20.00     0.048 C 
HETATM   10  N11 UNL     1     -32.416   5.589   1.356  1.00 20.00    -0.264 NA
ENDROOT
BRANCH   6  11
HETATM   11  C8  UNL     1     -34.697   6.619   4.010  1.00 20.00     0.268 C 
HETATM   12  O12 UNL     1     -35.437   5.678   4.305  1.00 20.00    -0.302 OA
ENDBRANCH   6  11
TORSDOF 1
