REMARK  0 active torsions:
REMARK  status: ('A' for Active; 'I' for Inactive)
ROOT
HETATM    1  C1  UNL     1     -33.209   5.439   2.945  1.00 20.00     0.108 C 
HETATM    2  C2  UNL     1     -33.783   6.867   3.023  1.00 20.00     0.241 C 
HETATM    3  C3  UNL     1     -32.811   7.251   1.881  1.00 20.00     0.321 C 
HETATM    4  C4  UNL     1     -32.801   5.738   1.475  1.00 20.00     0.249 C 
HETATM    5  O5  UNL     1     -33.508   7.512   4.235  1.00 20.00    -0.229 OA
HETATM    6  F6  UNL     1     -31.598   7.735   2.245  1.00 20.00    -0.198 F 
HETATM    7  F7  UNL     1     -33.304   8.108   0.958  1.00 20.00    -0.198 F 
HETATM    8  F8  UNL     1     -31.573   5.270   1.138  1.00 20.00    -0.219 F 
HETATM    9 CL9  UNL     1     -33.976   5.247   0.216  1.00 20.00    -0.076 Cl
ENDROOT
TORSDOF 0
