REMARK  2 active torsions:
REMARK  status: ('A' for Active; 'I' for Inactive)
REMARK    1  A    between atoms: C5_5  and  C6_6 
REMARK    2  A    between atoms: C7_7  and  O8_8 
ROOT
HETATM    1  C3  UNL     1     -32.327   8.200   2.879  1.00 20.00     0.010 C 
HETATM    2  C4  UNL     1     -33.354   7.063   3.009  1.00 20.00     0.032 C 
HETATM    3  C6  UNL     1     -32.325   7.966   1.347  1.00 20.00     0.018 C 
HETATM    4  C7  UNL     1     -32.882   6.542   1.635  1.00 20.00     0.122 C 
ENDROOT
BRANCH   3   5
HETATM    5  C5  UNL     1     -33.133   8.901   0.465  1.00 20.00    -0.008 A 
HETATM    6  C1  UNL     1     -33.078  10.399   0.585  1.00 20.00     0.005 A 
HETATM    7  C2  UNL     1     -32.525   9.722  -0.637  1.00 20.00     0.005 A 
ENDBRANCH   3   5
BRANCH   4   8
HETATM    8  O8  UNL     1     -31.900   5.487   1.670  1.00 20.00    -0.395 OA
HETATM    9  H20 UNL     1     -31.710   5.273   0.747  1.00 20.00     0.210 HD
ENDBRANCH   4   8
TORSDOF 2
