REMARK  1 active torsions:
REMARK  status: ('A' for Active; 'I' for Inactive)
REMARK    1  A    between atoms: C4_4  and  C11_11 
ROOT
HETATM    1  C1  UNL     1     -31.843   5.102   1.241  1.00 20.00     0.003 A 
HETATM    2  C2  UNL     1     -31.738   6.490   1.062  1.00 20.00     0.008 A 
HETATM    3  C3  UNL     1     -32.739   4.568   2.172  1.00 20.00     0.029 A 
HETATM    4  C4  UNL     1     -32.521   7.365   1.816  1.00 20.00    -0.045 A 
HETATM    5  C5  UNL     1     -33.409   6.822   2.727  1.00 20.00    -0.024 A 
HETATM    6  C6  UNL     1     -33.533   5.440   2.896  1.00 20.00     0.035 A 
HETATM    7  C7  UNL     1     -34.312   7.519   3.691  1.00 20.00     0.061 C 
HETATM    8  C10 UNL     1     -35.159   6.344   4.225  1.00 20.00     0.124 C 
HETATM    9  N12 UNL     1     -34.440   5.117   3.903  1.00 20.00    -0.389 N 
HETATM   10  H25 UNL     1     -34.853   4.198   3.977  1.00 20.00     0.159 HD
ENDROOT
BRANCH   4  11
HETATM   11  C11 UNL     1     -32.388   8.837   1.643  1.00 20.00     0.019 A 
HETATM   12  C8  UNL     1     -32.087   9.391   0.273  1.00 20.00     0.010 A 
HETATM   13  C9  UNL     1     -31.032   9.422   1.334  1.00 20.00     0.010 A 
ENDBRANCH   4  11
TORSDOF 1
