REMARK  0 active torsions:
REMARK  status: ('A' for Active; 'I' for Inactive)
ROOT
HETATM    1  C1  UNL     1     -34.905   5.059   4.119  1.00 20.00     0.104 C 
HETATM    2  C2  UNL     1     -32.961   7.881   2.671  1.00 20.00     0.107 A 
HETATM    3  C3  UNL     1     -33.303   5.203   2.276  1.00 20.00     0.145 A 
HETATM    4  C4  UNL     1     -34.015   5.812   3.297  1.00 20.00     0.100 A 
HETATM    5  C5  UNL     1     -33.835   7.177   3.492  1.00 20.00     0.142 A 
HETATM    6  C6  UNL     1     -32.296   7.180   1.679  1.00 20.00     0.212 A 
HETATM    7  N7  UNL     1     -35.629   4.446   4.788  1.00 20.00    -0.191 NA
HETATM    8  N8  UNL     1     -32.445   5.854   1.459  1.00 20.00    -0.231 NA
HETATM    9  F9  UNL     1     -34.495   7.824   4.463  1.00 20.00    -0.204 F 
HETATM   10  F10 UNL     1     -31.449   7.847   0.879  1.00 20.00    -0.184 F 
ENDROOT
TORSDOF 0
