REMARK  1 active torsions:
REMARK  status: ('A' for Active; 'I' for Inactive)
REMARK    1  A    between atoms: C3_3  and  C6_6 
ROOT
HETATM    1  C1  UNL     1     -32.413   6.505   1.574  1.00 20.00    -0.025 C 
HETATM    2  C2  UNL     1     -32.591   7.679   2.199  1.00 20.00    -0.026 C 
HETATM    3  C4  UNL     1     -32.712   5.160   2.192  1.00 20.00     0.015 C 
HETATM    4  C5  UNL     1     -33.141   7.806   3.600  1.00 20.00     0.008 C 
HETATM    5  C6  UNL     1     -33.043   5.289   3.698  1.00 20.00     0.066 C 
HETATM    6  C7  UNL     1     -33.900   6.528   4.058  1.00 20.00     0.000 C 
HETATM    7  C9  UNL     1     -33.758   4.425   1.347  1.00 20.00     0.015 C 
HETATM    8  C10 UNL     1     -33.975   9.081   3.744  1.00 20.00     0.014 C 
HETATM    9  C11 UNL     1     -35.338   6.459   3.523  1.00 20.00     0.011 C 
ENDROOT
BRANCH   5  10
HETATM   10  C3  UNL     1     -33.582   4.021   4.298  1.00 20.00     0.128 C 
HETATM   11  C8  UNL     1     -32.570   3.003   4.751  1.00 20.00     0.091 C 
HETATM   12  O12 UNL     1     -34.791   3.825   4.415  1.00 20.00    -0.298 OA
ENDBRANCH   5  10
TORSDOF 1
