REMARK  0 active torsions:
REMARK  status: ('A' for Active; 'I' for Inactive)
ROOT
HETATM    1  C1  UNL     1     -33.413   5.820   0.441  1.00 20.00     0.005 C 
HETATM    2  C2  UNL     1     -31.461   7.055   1.398  1.00 20.00     0.005 C 
HETATM    3  C3  UNL     1     -34.327   7.007   0.778  1.00 20.00     0.011 C 
HETATM    4  C4  UNL     1     -32.378   8.241   1.734  1.00 20.00     0.011 C 
HETATM    5  C5  UNL     1     -32.836   5.563   2.863  1.00 20.00     0.084 C 
HETATM    6  C6  UNL     1     -32.252   5.735   1.448  1.00 20.00    -0.009 C 
HETATM    7  C7  UNL     1     -33.804   7.742   2.023  1.00 20.00     0.058 C 
HETATM    8  C8  UNL     1     -33.746   6.748   3.188  1.00 20.00     0.247 C 
HETATM    9  F9  UNL     1     -34.995   6.301   3.474  1.00 20.00    -0.206 F 
HETATM   10  F10 UNL     1     -33.301   7.373   4.306  1.00 20.00    -0.206 F 
ENDROOT
TORSDOF 0
