REMARK  0 active torsions:
REMARK  status: ('A' for Active; 'I' for Inactive)
ROOT
HETATM    1  C1  UNL     1     -33.483   7.859   4.036  1.00 20.00     0.019 A 
HETATM    2  C2  UNL     1     -32.730   8.594   3.206  1.00 20.00     0.054 A 
HETATM    3  C3  UNL     1     -32.833   6.760   1.489  1.00 20.00     0.096 A 
HETATM    4  C4  UNL     1     -33.586   6.027   2.320  1.00 20.00     0.133 A 
HETATM    5  C5  UNL     1     -33.994   6.492   3.686  1.00 20.00     0.254 A 
HETATM    6  C6  UNL     1     -32.321   8.127   1.839  1.00 20.00     0.282 A 
HETATM    7  F7  UNL     1     -33.998   4.807   1.908  1.00 20.00    -0.207 F 
HETATM    8  F8  UNL     1     -35.355   6.480   3.780  1.00 20.00    -0.238 F 
HETATM    9  F9  UNL     1     -32.753   9.024   0.907  1.00 20.00    -0.197 F 
HETATM   10  F10 UNL     1     -30.960   8.136   1.747  1.00 20.00    -0.197 F 
ENDROOT
TORSDOF 0
