REMARK  1 active torsions:
REMARK  status: ('A' for Active; 'I' for Inactive)
REMARK    1  A    between atoms: C6_6  and  C10_10 
ROOT
HETATM    1  C1  UNL     1     -32.868   6.613   1.834  1.00 20.00     0.142 A 
HETATM    2  C2  UNL     1     -31.023   8.790   1.317  1.00 20.00     0.006 C 
HETATM    3  C3  UNL     1     -31.374   8.513   2.786  1.00 20.00     0.019 C 
HETATM    4  C4  UNL     1     -33.268   7.923   1.368  1.00 20.00     0.076 A 
HETATM    5  C5  UNL     1     -32.384   8.869   0.600  1.00 20.00    -0.006 C 
HETATM    6  C6  UNL     1     -32.675   7.734   2.744  1.00 20.00     0.034 A 
HETATM    7  C7  UNL     1     -32.293   8.519  -0.875  1.00 20.00     0.011 C 
HETATM    8  O11 UNL     1     -32.126   5.758   1.395  1.00 20.00    -0.297 OA
ENDROOT
BRANCH   6   9
HETATM    9  C10 UNL     1     -33.550   7.868   3.954  1.00 20.00    -0.006 C 
HETATM   10  C8  UNL     1     -34.597   6.744   4.020  1.00 20.00     0.011 C 
HETATM   11  C9  UNL     1     -32.724   7.878   5.249  1.00 20.00     0.011 C 
ENDBRANCH   6   9
TORSDOF 1
