REMARK  1 active torsions:
REMARK  status: ('A' for Active; 'I' for Inactive)
REMARK    1  A    between atoms: C1_1  and  C5_5 
ROOT
HETATM    1  C2  UNL     1     -32.790   7.590   4.370  1.00 20.00     0.006 C 
HETATM    2  C3  UNL     1     -32.716   6.061   4.461  1.00 20.00     0.006 C 
HETATM    3  C4  UNL     1     -34.790   6.646   3.518  1.00 20.00     0.011 C 
HETATM    4  C5  UNL     1     -33.325   7.491   1.863  1.00 20.00     0.084 C 
HETATM    5  C6  UNL     1     -33.850   7.830   3.277  1.00 20.00    -0.001 C 
HETATM    6  C7  UNL     1     -33.671   5.607   3.343  1.00 20.00    -0.006 C 
HETATM    7  C8  UNL     1     -33.102   5.948   1.923  1.00 20.00    -0.032 C 
HETATM    8  C9  UNL     1     -33.943   5.248   0.835  1.00 20.00     0.016 C 
HETATM    9  C10 UNL     1     -31.646   5.492   1.734  1.00 20.00     0.016 C 
ENDROOT
BRANCH   4  10
HETATM   10  C1  UNL     1     -32.151   8.331   1.460  1.00 20.00     0.224 C 
HETATM   11  O11 UNL     1     -31.091   8.298   2.079  1.00 20.00    -0.279 OA
HETATM   12 CL12 UNL     1     -32.494   9.307   0.064  1.00 20.00    -0.043 Cl
ENDBRANCH   4  10
TORSDOF 1
