REMARK  1 active torsions:
REMARK  status: ('A' for Active; 'I' for Inactive)
REMARK    1  A    between atoms: C6_6  and  C10_10 
ROOT
HETATM    1  C1  UNL     1     -35.706   5.837   4.358  1.00 20.00     0.017 C 
HETATM    2  C2  UNL     1     -34.789   6.179   3.663  1.00 20.00    -0.083 C 
HETATM    3  C3  UNL     1     -33.420   7.894   2.720  1.00 20.00    -0.002 C 
HETATM    4  C4  UNL     1     -33.700   6.584   2.836  1.00 20.00    -0.009 C 
HETATM    5  C7  UNL     1     -32.906   5.527   2.110  1.00 20.00     0.048 C 
HETATM    6  C8  UNL     1     -32.006   6.086   1.006  1.00 20.00     0.006 C 
HETATM    7  C9  UNL     1     -31.291   7.352   1.471  1.00 20.00     0.012 C 
HETATM    8  C10 UNL     1     -32.289   8.448   1.889  1.00 20.00     0.031 C 
ENDROOT
BRANCH   8   9
HETATM    9  C6  UNL     1     -32.824   9.189   0.697  1.00 20.00    -0.028 C 
HETATM   10  C5  UNL     1     -32.635  10.495   0.481  1.00 20.00     0.007 C 
ENDBRANCH   8   9
TORSDOF 1
