REMARK  0 active torsions:
REMARK  status: ('A' for Active; 'I' for Inactive)
ROOT
HETATM    1  C1  UNL     1     -33.278   1.821   4.769  1.00 20.00     0.012 C 
HETATM    2  C2  UNL     1     -31.817   7.872   1.633  1.00 20.00     0.012 C 
HETATM    3  C3  UNL     1     -33.501   2.997   4.669  1.00 20.00    -0.113 C 
HETATM    4  C4  UNL     1     -32.642   7.159   2.135  1.00 20.00    -0.113 C 
HETATM    5  C5  UNL     1     -35.598   6.189   4.372  1.00 20.00     0.002 C 
HETATM    6  C6  UNL     1     -35.276   4.693   4.398  1.00 20.00     0.017 C 
HETATM    7  C7  UNL     1     -34.472   7.049   3.792  1.00 20.00     0.017 C 
HETATM    8  C8  UNL     1     -32.987   5.040   3.368  1.00 20.00     0.034 C 
HETATM    9  C9  UNL     1     -33.776   4.438   4.546  1.00 20.00     0.065 C 
HETATM   10  C10 UNL     1     -33.653   6.283   2.751  1.00 20.00     0.065 C 
ENDROOT
TORSDOF 0
