REMARK  2 active torsions:
REMARK  status: ('A' for Active; 'I' for Inactive)
REMARK    1  A    between atoms: C1_1  and  C6_6 
REMARK    2  A    between atoms: C2_2  and  C8_8 
ROOT
HETATM    1  C1  UNL     1     -32.494   7.757   2.229  1.00 20.00    -0.100 C 
HETATM    2  C2  UNL     1     -32.414   8.677   1.462  1.00 20.00    -0.088 C 
ENDROOT
BRANCH   1   3
HETATM    3  C6  UNL     1     -32.590   6.659   3.145  1.00 20.00     0.069 A 
HETATM    4  C5  UNL     1     -33.840   5.815   3.136  1.00 20.00     0.023 A 
HETATM    5  C7  UNL     1     -33.550   6.707   4.311  1.00 20.00    -0.002 A 
HETATM    6  C9  UNL     1     -34.423   7.883   4.589  1.00 20.00     0.011 C 
ENDBRANCH   1   3
BRANCH   2   7
HETATM    7  C8  UNL     1     -32.315   9.798   0.528  1.00 20.00     0.055 A 
HETATM    8  C3  UNL     1     -32.705   9.670  -0.867  1.00 20.00    -0.003 A 
HETATM    9  C4  UNL     1     -31.404   9.774  -0.605  1.00 20.00    -0.003 A 
HETATM   10  C10 UNL     1     -32.554  11.128   1.192  1.00 20.00     0.038 C 
ENDBRANCH   2   7
TORSDOF 2
