REMARK  1 active torsions:
REMARK  status: ('A' for Active; 'I' for Inactive)
REMARK    1  A    between atoms: C4_4  and  C7_7 
ROOT
HETATM    1  C1  UNL     1     -34.845   6.535   4.171  1.00 20.00     0.014 C 
HETATM    2  C2  UNL     1     -34.012   6.878   3.377  1.00 20.00    -0.091 C 
HETATM    3  C3  UNL     1     -32.097   8.427   2.802  1.00 20.00     0.046 A 
HETATM    4  C4  UNL     1     -33.171   8.644   1.772  1.00 20.00     0.024 A 
HETATM    5  C5  UNL     1     -33.018   7.287   2.429  1.00 20.00     0.103 A 
HETATM    6 CL8  UNL     1     -32.319   5.945   1.520  1.00 20.00    -0.105 Cl
ENDROOT
BRANCH   4   7
HETATM    7  C7  UNL     1     -32.799   8.904   0.352  1.00 20.00     0.003 C 
HETATM    8  C6  UNL     1     -32.423  10.341   0.096  1.00 20.00     0.005 C 
ENDBRANCH   4   7
TORSDOF 1
