REMARK  1 active torsions:
REMARK  status: ('A' for Active; 'I' for Inactive)
REMARK    1  A    between atoms: C4_4  and  C6_6 
ROOT
HETATM    1  C1  UNL     1     -34.357   7.341   1.708  1.00 20.00     0.062 C 
HETATM    2  C2  UNL     1     -32.596   6.164   1.499  1.00 20.00     0.062 C 
HETATM    3  C3  UNL     1     -32.694   7.674   2.995  1.00 20.00     0.062 C 
HETATM    4  C4  UNL     1     -32.847   7.726   1.419  1.00 20.00     0.067 C 
HETATM    5  C5  UNL     1     -33.563   6.431   2.679  1.00 20.00     0.106 C 
HETATM    6  F7  UNL     1     -34.051   5.549   3.537  1.00 20.00    -0.243 F 
ENDROOT
BRANCH   4   7
HETATM    7  C6  UNL     1     -32.302   8.710   0.460  1.00 20.00     0.395 C 
HETATM    8  F8  UNL     1     -32.750   9.968   0.713  1.00 20.00    -0.170 F 
HETATM    9  F9  UNL     1     -30.944   8.760   0.500  1.00 20.00    -0.170 F 
HETATM   10  F10 UNL     1     -32.649   8.418  -0.821  1.00 20.00    -0.170 F 
ENDBRANCH   4   7
TORSDOF 1
