REMARK  0 active torsions:
REMARK  status: ('A' for Active; 'I' for Inactive)
ROOT
HETATM    1  C1  UNL     1     -33.582   5.933   2.532  1.00 20.00    -0.011 A 
HETATM    2  C2  UNL     1     -33.421   7.063   3.238  1.00 20.00    -0.011 A 
HETATM    3  C3  UNL     1     -32.551   5.886   1.430  1.00 20.00     0.033 A 
HETATM    4  C4  UNL     1     -32.347   8.521   1.398  1.00 20.00     0.016 A 
HETATM    5  C5  UNL     1     -32.317   7.915   2.773  1.00 20.00     0.030 A 
HETATM    6  C6  UNL     1     -31.740   7.157   1.590  1.00 20.00    -0.002 A 
HETATM    7 BR7  UNL     1     -34.433   7.620   4.671  1.00 20.00    -0.056 Br
ENDROOT
TORSDOF 0
