REMARK  0 active torsions:
REMARK  status: ('A' for Active; 'I' for Inactive)
ROOT
HETATM    1  C1  UNL     1     -32.774   6.602   1.622  1.00 20.00     0.022 A 
HETATM    2  C2  UNL     1     -32.771   8.617   3.131  1.00 20.00     0.022 A 
HETATM    3  C3  UNL     1     -33.709   6.029   2.393  1.00 20.00     0.054 A 
HETATM    4  C4  UNL     1     -33.706   8.040   3.899  1.00 20.00     0.054 A 
HETATM    5  C5  UNL     1     -32.178   7.958   1.909  1.00 20.00     0.135 A 
HETATM    6  C6  UNL     1     -34.266   6.676   3.626  1.00 20.00     0.280 A 
HETATM    7  C7  UNL     1     -30.663   7.834   2.072  1.00 20.00     0.061 C 
HETATM    8  F8  UNL     1     -32.396   8.768   0.829  1.00 20.00    -0.234 F 
HETATM    9  F9  UNL     1     -34.040   5.870   4.702  1.00 20.00    -0.197 F 
HETATM   10  F10 UNL     1     -35.623   6.760   3.516  1.00 20.00    -0.197 F 
ENDROOT
TORSDOF 0
