REMARK  0 active torsions:
REMARK  status: ('A' for Active; 'I' for Inactive)
ROOT
HETATM    1  C1  UNL     1     -32.382   5.260   1.704  1.00 20.00     0.009 A 
HETATM    2  C2  UNL     1     -31.608   6.365   1.345  1.00 20.00     0.019 A 
HETATM    3  C3  UNL     1     -33.074   7.826   2.600  1.00 20.00     0.032 A 
HETATM    4  C4  UNL     1     -33.830   6.714   2.962  1.00 20.00    -0.011 A 
HETATM    5  C5  UNL     1     -33.498   5.429   2.526  1.00 20.00    -0.045 A 
HETATM    6  C6  UNL     1     -31.953   7.644   1.791  1.00 20.00     0.011 A 
HETATM    7  C7  UNL     1     -35.032   6.860   3.789  1.00 20.00     0.122 C 
HETATM    8  C8  UNL     1     -34.405   4.294   2.894  1.00 20.00     0.061 C 
HETATM    9  C9  UNL     1     -35.031   4.551   4.261  1.00 20.00     0.153 C 
HETATM   10  N10 UNL     1     -35.645   5.883   4.367  1.00 20.00    -0.300 NA
HETATM   11 BR11 UNL     1     -30.900   9.132   1.289  1.00 20.00    -0.051 Br
ENDROOT
TORSDOF 0
