REMARK  0 active torsions:
REMARK  status: ('A' for Active; 'I' for Inactive)
ROOT
HETATM    1  C1  UNL     1     -32.312   8.321   2.579  1.00 20.00     0.001 C 
HETATM    2  C2  UNL     1     -34.947   5.165   4.557  1.00 20.00     0.001 C 
HETATM    3  C3  UNL     1     -33.228   7.591   3.564  1.00 20.00     0.005 C 
HETATM    4  C4  UNL     1     -35.457   6.501   4.030  1.00 20.00     0.005 C 
HETATM    5  C5  UNL     1     -32.433   7.947   1.107  1.00 20.00     0.005 C 
HETATM    6  C6  UNL     1     -34.157   4.538   3.410  1.00 20.00     0.005 C 
HETATM    7  C7  UNL     1     -31.601   5.505   1.693  1.00 20.00     0.010 A 
HETATM    8  C8  UNL     1     -34.452   6.912   2.942  1.00 20.00    -0.010 C 
HETATM    9  C9  UNL     1     -32.211   6.514   0.754  1.00 20.00    -0.010 A 
HETATM   10  C10 UNL     1     -34.193   5.558   2.263  1.00 20.00    -0.006 C 
HETATM   11  C11 UNL     1     -33.057   5.390   1.302  1.00 20.00    -0.006 A 
ENDROOT
TORSDOF 0
