REMARK  0 active torsions:
REMARK  status: ('A' for Active; 'I' for Inactive)
ROOT
HETATM    1  C1  UNL     1     -32.735   7.903   3.021  1.00 20.00     0.017 A 
HETATM    2  C2  UNL     1     -32.289   7.367   1.877  1.00 20.00     0.054 A 
HETATM    3  C3  UNL     1     -33.748   5.356   2.253  1.00 20.00     0.060 A 
HETATM    4  C4  UNL     1     -34.205   5.882   3.403  1.00 20.00    -0.044 A 
HETATM    5  C5  UNL     1     -33.739   7.227   3.909  1.00 20.00     0.221 A 
HETATM    6  C6  UNL     1     -32.746   6.036   1.366  1.00 20.00     0.280 A 
HETATM    7  C7  UNL     1     -35.207   5.165   4.260  1.00 20.00     0.046 C 
HETATM    8  F8  UNL     1     -34.814   8.052   4.074  1.00 20.00    -0.240 F 
HETATM    9  F9  UNL     1     -33.279   6.189   0.120  1.00 20.00    -0.197 F 
HETATM   10  F10 UNL     1     -31.666   5.220   1.199  1.00 20.00    -0.197 F 
ENDROOT
TORSDOF 0
