REMARK  1 active torsions:
REMARK  status: ('A' for Active; 'I' for Inactive)
REMARK    1  A    between atoms: C1_1  and  C5_5 
ROOT
HETATM    1  C1  UNL     1     -33.705   5.413   3.633  1.00 20.00    -0.097 C 
HETATM    2  C2  UNL     1     -33.788   4.324   4.131  1.00 20.00    -0.110 C 
HETATM    3  C7  UNL     1     -33.890   2.997   4.738  1.00 20.00     0.112 C 
ENDROOT
BRANCH   1   4
HETATM    4  C5  UNL     1     -33.605   6.739   3.027  1.00 20.00     0.027 C 
HETATM    5  C3  UNL     1     -34.880   7.132   2.217  1.00 20.00     0.024 C 
HETATM    6  C4  UNL     1     -34.196   6.608   0.939  1.00 20.00     0.012 C 
HETATM    7  C6  UNL     1     -32.816   6.795   1.640  1.00 20.00    -0.029 C 
HETATM    8  C9  UNL     1     -32.169   8.141   1.281  1.00 20.00     0.016 C 
HETATM    9  C10 UNL     1     -31.832   5.659   1.350  1.00 20.00     0.016 C 
HETATM   10  C8  UNL     1     -33.218   7.756   4.098  1.00 20.00     0.030 C 
ENDBRANCH   1   4
TORSDOF 1
