REMARK  0 active torsions:
REMARK  status: ('A' for Active; 'I' for Inactive)
ROOT
HETATM    1  C1  UNL     1     -32.610   6.691   1.907  1.00 20.00    -0.064 A 
HETATM    2  C2  UNL     1     -32.083   5.622   1.343  1.00 20.00     0.016 C 
HETATM    3  C3  UNL     1     -34.098   6.171   3.684  1.00 20.00     0.017 A 
HETATM    4  C4  UNL     1     -34.072   7.594   4.036  1.00 20.00     0.017 A 
HETATM    5  C5  UNL     1     -32.403   8.034   2.161  1.00 20.00     0.099 A 
HETATM    6  C6  UNL     1     -33.747   7.195   2.599  1.00 20.00     0.000 A 
HETATM    7 BR7  UNL     1     -32.654   9.269   0.734  1.00 20.00    -0.085 Br
ENDROOT
TORSDOF 0
