REMARK  0 active torsions:
REMARK  status: ('A' for Active; 'I' for Inactive)
ROOT
HETATM    1  C1  UNL     1     -31.431   6.237   1.309  1.00 20.00    -0.012 C 
HETATM    2  C2  UNL     1     -31.437   7.523   1.710  1.00 20.00    -0.016 C 
HETATM    3  C3  UNL     1     -33.023   4.985   2.610  1.00 20.00    -0.010 C 
HETATM    4  C4  UNL     1     -33.966   5.473   3.690  1.00 20.00     0.014 C 
HETATM    5  C5  UNL     1     -32.803   5.799   1.527  1.00 20.00     0.051 C 
HETATM    6  C6  UNL     1     -32.813   7.911   2.059  1.00 20.00     0.034 C 
HETATM    7  C7  UNL     1     -33.678   7.036   1.465  1.00 20.00     0.224 C 
HETATM    8  C8  UNL     1     -34.415   6.762   3.519  1.00 20.00     0.216 C 
HETATM    9  C9  UNL     1     -33.301   7.910   3.528  1.00 20.00     0.066 C 
HETATM   10  N10 UNL     1     -34.872   6.926   2.188  1.00 20.00     0.115 N 
HETATM   11  H17 UNL     1     -35.530   7.689   2.051  1.00 20.00     0.318 HD
ENDROOT
TORSDOF 0
