REMARK  1 active torsions:
REMARK  status: ('A' for Active; 'I' for Inactive)
REMARK    1  A    between atoms: C6_6  and  C11_11 
ROOT
HETATM    1  C1  UNL     1     -33.657   6.073   2.508  1.00 20.00     0.003 C 
HETATM    2  C2  UNL     1     -32.703   6.737   1.838  1.00 20.00    -0.016 C 
HETATM    3  C3  UNL     1     -34.249   7.992   3.858  1.00 20.00    -0.019 C 
HETATM    4  C4  UNL     1     -34.533   6.744   3.448  1.00 20.00    -0.066 C 
HETATM    5  C5  UNL     1     -33.037   8.740   3.371  1.00 20.00     0.041 C 
HETATM    6  C6  UNL     1     -32.465   8.226   2.017  1.00 20.00    -0.020 C 
HETATM    7  C7  UNL     1     -35.719   5.975   3.943  1.00 20.00     0.048 C 
HETATM    8  C8  UNL     1     -30.956   8.519   1.969  1.00 20.00     0.020 C 
ENDROOT
BRANCH   6   9
HETATM    9  C11 UNL     1     -33.148   8.958   0.846  1.00 20.00    -0.011 C 
HETATM   10  C9  UNL     1     -32.970  10.463   0.995  1.00 20.00     0.010 C 
HETATM   11  C10 UNL     1     -32.583   8.468  -0.479  1.00 20.00     0.010 C 
ENDBRANCH   6   9
TORSDOF 1
