REMARK  0 active torsions:
REMARK  status: ('A' for Active; 'I' for Inactive)
ROOT
HETATM    1  C1  UNL     1     -32.432   8.201   2.226  1.00 20.00     0.017 A 
HETATM    2  C2  UNL     1     -32.147   7.284   1.293  1.00 20.00     0.054 A 
HETATM    3  C3  UNL     1     -33.792   5.704   2.348  1.00 20.00     0.060 A 
HETATM    4  C4  UNL     1     -34.087   6.615   3.291  1.00 20.00    -0.044 A 
HETATM    5  C5  UNL     1     -33.427   7.973   3.326  1.00 20.00     0.221 A 
HETATM    6  C6  UNL     1     -32.794   5.933   1.250  1.00 20.00     0.280 A 
HETATM    7  C7  UNL     1     -35.094   6.341   4.369  1.00 20.00     0.046 C 
HETATM    8  F8  UNL     1     -32.809   8.151   4.530  1.00 20.00    -0.240 F 
HETATM    9  F9  UNL     1     -33.404   5.763   0.043  1.00 20.00    -0.197 F 
HETATM   10  F10 UNL     1     -31.831   4.969   1.308  1.00 20.00    -0.197 F 
ENDROOT
TORSDOF 0
