REMARK  0 active torsions:
REMARK  status: ('A' for Active; 'I' for Inactive)
ROOT
HETATM    1  C1  UNL     1     -31.225   9.012   0.366  1.00 20.00     0.003 A 
HETATM    2  C2  UNL     1     -31.091   7.690   0.188  1.00 20.00     0.034 A 
HETATM    3  C3  UNL     1     -32.172   9.338   1.406  1.00 20.00     0.018 A 
HETATM    4  C4  UNL     1     -34.844   5.574   4.229  1.00 20.00     0.014 A 
HETATM    5  C5  UNL     1     -33.977   5.210   3.274  1.00 20.00     0.118 A 
HETATM    6  C6  UNL     1     -32.662   8.218   1.914  1.00 20.00     0.042 A 
HETATM    7  C7  UNL     1     -32.007   7.126   1.172  1.00 20.00     0.091 A 
HETATM    8  C8  UNL     1     -33.534   7.516   2.848  1.00 20.00     0.158 A 
HETATM    9  C9  UNL     1     -35.091   7.037   4.534  1.00 20.00     0.180 A 
HETATM   10  N10 UNL     1     -32.374   5.937   1.543  1.00 20.00    -0.166 NA
HETATM   11  N11 UNL     1     -34.325   8.026   3.723  1.00 20.00    -0.267 NA
HETATM   12  N12 UNL     1     -33.306   6.168   2.566  1.00 20.00    -0.226 N 
ENDROOT
TORSDOF 0
