REMARK  2 active torsions:
REMARK  status: ('A' for Active; 'I' for Inactive)
REMARK    1  A    between atoms: C8_8  and  C10_10 
REMARK    2  A    between atoms: C10_10  and  C11_11 
ROOT
HETATM    1  C1  UNL     1     -33.231   3.325   5.065  1.00 20.00     0.012 C 
HETATM    2  C2  UNL     1     -33.908   4.011   4.350  1.00 20.00    -0.113 C 
HETATM    3  C3  UNL     1     -35.058   6.198   4.139  1.00 20.00     0.017 C 
HETATM    4  C4  UNL     1     -34.069   5.057   2.107  1.00 20.00     0.017 C 
HETATM    5  C5  UNL     1     -33.854   7.141   4.193  1.00 20.00     0.006 C 
HETATM    6  C6  UNL     1     -32.867   6.002   2.166  1.00 20.00     0.006 C 
HETATM    7  C7  UNL     1     -34.740   4.855   3.471  1.00 20.00     0.064 C 
HETATM    8  C8  UNL     1     -33.231   7.347   2.807  1.00 20.00    -0.014 C 
ENDROOT
BRANCH   8   9
HETATM    9  C10 UNL     1     -32.004   8.252   2.896  1.00 20.00     0.004 C 
BRANCH   9  10
HETATM   10  C11 UNL     1     -31.353   8.435   1.530  1.00 20.00    -0.004 C 
HETATM   11  C9  UNL     1     -32.326   9.040   0.532  1.00 20.00     0.005 C 
ENDBRANCH   9  10
ENDBRANCH   8   9
TORSDOF 2
