REMARK  0 active torsions:
REMARK  status: ('A' for Active; 'I' for Inactive)
ROOT
HETATM    1  C1  UNL     1     -35.504   6.414   4.235  1.00 20.00     0.001 C 
HETATM    2  C2  UNL     1     -35.058   5.629   2.990  1.00 20.00     0.005 C 
HETATM    3  C3  UNL     1     -34.458   7.518   4.456  1.00 20.00     0.005 C 
HETATM    4  C4  UNL     1     -33.046   5.903   1.372  1.00 20.00     0.011 C 
HETATM    5  C5  UNL     1     -31.646   6.529   1.314  1.00 20.00     0.079 C 
HETATM    6  C6  UNL     1     -32.294   8.166   3.175  1.00 20.00     0.084 C 
HETATM    7  C7  UNL     1     -33.621   6.079   2.769  1.00 20.00    -0.010 C 
HETATM    8  C8  UNL     1     -33.688   7.558   3.145  1.00 20.00    -0.005 C 
HETATM    9  C9  UNL     1     -31.629   7.973   1.813  1.00 20.00     0.244 C 
HETATM   10  F10 UNL     1     -32.263   8.758   0.900  1.00 20.00    -0.206 F 
HETATM   11  F11 UNL     1     -30.348   8.415   1.871  1.00 20.00    -0.206 F 
ENDROOT
TORSDOF 0
