REMARK  0 active torsions:
REMARK  status: ('A' for Active; 'I' for Inactive)
ROOT
HETATM    1  C1  UNL     1     -31.407   6.450   1.404  1.00 20.00     0.001 C 
HETATM    2  C2  UNL     1     -34.800   4.399   4.361  1.00 20.00     0.001 C 
HETATM    3  C3  UNL     1     -32.393   5.290   1.592  1.00 20.00     0.005 C 
HETATM    4  C4  UNL     1     -33.968   4.029   3.144  1.00 20.00     0.005 C 
HETATM    5  C5  UNL     1     -32.052   7.837   1.432  1.00 20.00     0.005 C 
HETATM    6  C6  UNL     1     -35.092   5.889   4.196  1.00 20.00     0.005 C 
HETATM    7  C7  UNL     1     -33.610   9.000   3.172  1.00 20.00     0.010 A 
HETATM    8  C8  UNL     1     -33.077   5.254   2.962  1.00 20.00    -0.010 C 
HETATM    9  C9  UNL     1     -32.312   8.315   2.829  1.00 20.00    -0.010 A 
HETATM   10  C10 UNL     1     -34.048   6.423   3.201  1.00 20.00    -0.006 C 
HETATM   11  C11 UNL     1     -33.319   7.626   3.716  1.00 20.00    -0.006 A 
ENDROOT
TORSDOF 0
