REMARK  0 active torsions:
REMARK  status: ('A' for Active; 'I' for Inactive)
ROOT
HETATM    1  C1  UNL     1     -32.843  10.459   0.293  1.00 20.00     0.013 C 
HETATM    2  C2  UNL     1     -32.609   9.436   0.875  1.00 20.00    -0.103 C 
HETATM    3  C3  UNL     1     -33.478   5.684   2.528  1.00 20.00    -0.004 C 
HETATM    4  C4  UNL     1     -33.687   6.904   3.266  1.00 20.00     0.004 C 
HETATM    5  C5  UNL     1     -32.982   5.704   1.285  1.00 20.00    -0.025 C 
HETATM    6  C6  UNL     1     -33.164   8.082   2.872  1.00 20.00    -0.063 C 
HETATM    7  C7  UNL     1     -32.607   6.992   0.611  1.00 20.00     0.054 C 
HETATM    8  C8  UNL     1     -32.320   8.173   1.593  1.00 20.00     0.045 C 
HETATM    9  C9  UNL     1     -33.361   9.315   3.716  1.00 20.00     0.045 C 
HETATM   10  C10 UNL     1     -30.828   8.159   1.985  1.00 20.00     0.034 C 
ENDROOT
TORSDOF 0
