REMARK  0 active torsions:
REMARK  status: ('A' for Active; 'I' for Inactive)
ROOT
HETATM    1  C1  UNL     1     -35.272   7.771   3.939  1.00 20.00    -0.025 C 
HETATM    2  C2  UNL     1     -35.627   6.514   3.610  1.00 20.00    -0.025 C 
HETATM    3  C3  UNL     1     -31.954   7.610   1.966  1.00 20.00    -0.022 C 
HETATM    4  C4  UNL     1     -31.956   6.634   1.029  1.00 20.00     0.007 C 
HETATM    5  C5  UNL     1     -33.718   6.429   4.890  1.00 20.00     0.018 C 
HETATM    6  C6  UNL     1     -33.759   7.777   4.155  1.00 20.00     0.017 C 
HETATM    7  C7  UNL     1     -34.398   5.644   3.726  1.00 20.00     0.016 C 
HETATM    8  C8  UNL     1     -33.227   7.499   2.727  1.00 20.00     0.023 C 
HETATM    9  C9  UNL     1     -33.114   5.657   1.232  1.00 20.00     0.198 C 
HETATM   10  C10 UNL     1     -33.308   5.947   2.697  1.00 20.00     0.039 C 
HETATM   11  F11 UNL     1     -34.200   6.011   0.507  1.00 20.00    -0.245 F 
ENDROOT
TORSDOF 0
