REMARK  0 active torsions:
REMARK  status: ('A' for Active; 'I' for Inactive)
ROOT
HETATM    1  C1  UNL     1     -35.467   6.120   4.099  1.00 20.00     0.014 C 
HETATM    2  C2  UNL     1     -34.522   6.476   3.450  1.00 20.00    -0.091 C 
HETATM    3  C3  UNL     1     -32.391   8.674   1.318  1.00 20.00     0.003 C 
HETATM    4  C4  UNL     1     -31.469   8.403   2.508  1.00 20.00     0.003 C 
HETATM    5  C5  UNL     1     -33.723   8.005   1.652  1.00 20.00     0.039 C 
HETATM    6  C6  UNL     1     -32.292   7.585   3.503  1.00 20.00     0.039 C 
HETATM    7  C7  UNL     1     -33.371   6.911   2.658  1.00 20.00     0.099 C 
HETATM    8 CL8  UNL     1     -32.710   5.474   1.821  1.00 20.00    -0.105 Cl
ENDROOT
TORSDOF 0
