REMARK  0 active torsions:
REMARK  status: ('A' for Active; 'I' for Inactive)
ROOT
HETATM    1  C1  UNL     1     -32.992   7.576   2.506  1.00 20.00     0.041 A 
HETATM    2  C2  UNL     1     -33.322   7.352   3.791  1.00 20.00     0.101 A 
HETATM    3  C3  UNL     1     -33.879   6.473   1.982  1.00 20.00     0.138 A 
HETATM    4  C4  UNL     1     -34.266   6.204   3.455  1.00 20.00     0.287 A 
HETATM    5  F5  UNL     1     -33.944   4.968   3.908  1.00 20.00    -0.199 F 
HETATM    6  F6  UNL     1     -35.582   6.368   3.731  1.00 20.00    -0.199 F 
HETATM    7 CL7  UNL     1     -31.920   8.732   1.717  1.00 20.00    -0.087 Cl
HETATM    8 CL8  UNL     1     -32.847   8.099   5.315  1.00 20.00    -0.081 Cl
ENDROOT
TORSDOF 0
