REMARK  1 active torsions:
REMARK  status: ('A' for Active; 'I' for Inactive)
REMARK    1  A    between atoms: C9_9  and  C10_10 
ROOT
HETATM    1  C1  UNL     1     -34.077   4.614   3.411  1.00 20.00     0.001 A 
HETATM    2  C2  UNL     1     -34.852   5.649   4.104  1.00 20.00     0.001 A 
HETATM    3  C3  UNL     1     -33.067   4.916   2.569  1.00 20.00     0.012 A 
HETATM    4  C4  UNL     1     -34.602   6.965   3.940  1.00 20.00     0.012 A 
HETATM    5  C5  UNL     1     -31.825   6.889   1.589  1.00 20.00     0.009 A 
HETATM    6  C6  UNL     1     -33.072   8.553   2.703  1.00 20.00     0.009 A 
HETATM    7  C7  UNL     1     -32.757   6.311   2.360  1.00 20.00    -0.028 A 
HETATM    8  C8  UNL     1     -33.529   7.341   3.050  1.00 20.00    -0.028 A 
HETATM    9  C10 UNL     1     -31.920   8.388   1.741  1.00 20.00     0.082 A 
HETATM   10  C11 UNL     1     -30.631   9.020   2.239  1.00 20.00     0.035 C 
ENDROOT
BRANCH   9  11
HETATM   11  C9  UNL     1     -32.327   8.976   0.407  1.00 20.00     0.189 C 
HETATM   12  O12 UNL     1     -32.445  10.232   0.385  1.00 20.00    -0.647 OA
HETATM   13  O13 UNL     1     -32.495   8.130  -0.515  1.00 20.00    -0.647 OA
ENDBRANCH   9  11
TORSDOF 1
