REMARK  0 active torsions:
REMARK  status: ('A' for Active; 'I' for Inactive)
ROOT
HETATM    1  C1  UNL     1     -33.007   7.577   2.491  1.00 20.00    -0.087 C 
HETATM    2  C2  UNL     1     -32.192   8.417   1.853  1.00 20.00     0.014 C 
HETATM    3  C3  UNL     1     -33.489   6.174   2.191  1.00 20.00     0.049 C 
HETATM    4  C4  UNL     1     -33.784   7.669   3.786  1.00 20.00     0.049 C 
HETATM    5  C5  UNL     1     -34.633   6.524   3.177  1.00 20.00     0.065 C 
HETATM    6 BR6  UNL     1     -35.132   5.113   4.409  1.00 20.00    -0.091 Br
ENDROOT
TORSDOF 0
