REMARK  0 active torsions:
REMARK  status: ('A' for Active; 'I' for Inactive)
ROOT
HETATM    1  C1  UNL     1     -32.764   7.922   3.249  1.00 20.00     0.019 A 
HETATM    2  C2  UNL     1     -33.662   7.308   4.033  1.00 20.00     0.054 A 
HETATM    3  C3  UNL     1     -33.980   5.534   2.280  1.00 20.00     0.096 A 
HETATM    4  C4  UNL     1     -33.083   6.149   1.497  1.00 20.00     0.133 A 
HETATM    5  C5  UNL     1     -32.374   7.410   1.893  1.00 20.00     0.254 A 
HETATM    6  C6  UNL     1     -34.369   6.045   3.637  1.00 20.00     0.282 A 
HETATM    7  F7  UNL     1     -32.802   5.606   0.291  1.00 20.00    -0.207 F 
HETATM    8  F8  UNL     1     -32.612   8.374   0.958  1.00 20.00    -0.238 F 
HETATM    9  F9  UNL     1     -34.127   5.080   4.570  1.00 20.00    -0.197 F 
HETATM   10  F10 UNL     1     -35.717   6.253   3.671  1.00 20.00    -0.197 F 
ENDROOT
TORSDOF 0
