REMARK  1 active torsions:
REMARK  status: ('A' for Active; 'I' for Inactive)
REMARK    1  A    between atoms: C1_1  and  C5_5 
ROOT
HETATM    1  C1  UNL     1     -33.701   4.747   3.732  1.00 20.00    -0.097 C 
HETATM    2  C2  UNL     1     -33.674   3.631   4.173  1.00 20.00    -0.110 C 
HETATM    3  C7  UNL     1     -33.640   2.271   4.708  1.00 20.00     0.112 C 
ENDROOT
BRANCH   1   4
HETATM    4  C5  UNL     1     -33.735   6.101   3.198  1.00 20.00     0.027 C 
HETATM    5  C3  UNL     1     -32.482   6.957   3.561  1.00 20.00     0.024 C 
HETATM    6  C4  UNL     1     -32.476   7.500   2.118  1.00 20.00     0.012 C 
HETATM    7  C6  UNL     1     -33.274   6.236   1.677  1.00 20.00    -0.029 C 
HETATM    8  C9  UNL     1     -32.347   5.135   1.136  1.00 20.00     0.016 C 
HETATM    9  C10 UNL     1     -34.372   6.535   0.655  1.00 20.00     0.016 C 
HETATM   10  C8  UNL     1     -35.043   6.784   3.609  1.00 20.00     0.030 C 
ENDBRANCH   1   4
TORSDOF 1
