REMARK  0 active torsions:
REMARK  status: ('A' for Active; 'I' for Inactive)
ROOT
HETATM    1  C1  UNL     1     -33.604   3.189   4.549  1.00 20.00     0.013 C 
HETATM    2  C2  UNL     1     -33.832   4.278   4.097  1.00 20.00    -0.106 C 
HETATM    3  C3  UNL     1     -32.976   6.593   3.602  1.00 20.00     0.041 A 
HETATM    4  C4  UNL     1     -33.420   6.034   2.279  1.00 20.00     0.079 A 
HETATM    5  C5  UNL     1     -34.104   5.586   3.556  1.00 20.00     0.033 A 
HETATM    6  C6  UNL     1     -35.501   6.086   3.808  1.00 20.00     0.030 C 
HETATM    7 BR7  UNL     1     -32.211   4.888   1.341  1.00 20.00    -0.089 Br
ENDROOT
TORSDOF 0
