REMARK  1 active torsions:
REMARK  status: ('A' for Active; 'I' for Inactive)
REMARK    1  A    between atoms: C5_5  and  C7_7 
ROOT
HETATM    1  C1  UNL     1     -32.882  10.499   0.414  1.00 20.00     0.001 C 
HETATM    2  C2  UNL     1     -32.174   9.801  -0.746  1.00 20.00     0.001 C 
HETATM    3  C3  UNL     1     -33.170   9.416   1.451  1.00 20.00     0.018 C 
HETATM    4  C4  UNL     1     -32.065   8.329  -0.356  1.00 20.00     0.018 C 
HETATM    5  C5  UNL     1     -32.134   8.317   1.178  1.00 20.00     0.054 C 
HETATM    6  C6  UNL     1     -30.772   8.666   1.800  1.00 20.00     0.024 C 
ENDROOT
BRANCH   5   7
HETATM    7  C7  UNL     1     -32.598   6.960   1.710  1.00 20.00     0.395 C 
HETATM    8  F8  UNL     1     -33.746   6.612   1.116  1.00 20.00    -0.170 F 
HETATM    9  F9  UNL     1     -31.668   6.033   1.452  1.00 20.00    -0.170 F 
HETATM   10  F10 UNL     1     -32.791   7.037   3.032  1.00 20.00    -0.170 F 
ENDBRANCH   5   7
TORSDOF 1
