REMARK  1 active torsions:
REMARK  status: ('A' for Active; 'I' for Inactive)
REMARK    1  A    between atoms: C1_1  and  C6_6 
ROOT
HETATM    1  C1  UNL     1     -33.101   7.526   2.920  1.00 20.00    -0.029 A 
HETATM    2  C2  UNL     1     -33.742   6.403   2.550  1.00 20.00     0.168 A 
HETATM    3  C3  UNL     1     -33.695   7.537   4.305  1.00 20.00     0.124 A 
HETATM    4  C7  UNL     1     -34.449   6.249   3.891  1.00 20.00     0.300 A 
HETATM    5  F8  UNL     1     -33.763   5.683   1.421  1.00 20.00    -0.204 F 
HETATM    6  F9  UNL     1     -35.800   6.356   3.908  1.00 20.00    -0.198 F 
HETATM    7  F10 UNL     1     -34.154   5.158   4.638  1.00 20.00    -0.198 F 
ENDROOT
BRANCH   1   8
HETATM    8  C6  UNL     1     -32.119   8.432   2.169  1.00 20.00     0.018 A 
HETATM    9  C4  UNL     1     -31.068   7.920   1.183  1.00 20.00     0.010 A 
HETATM   10  C5  UNL     1     -32.213   8.743   0.675  1.00 20.00     0.010 A 
ENDBRANCH   1   8
TORSDOF 1
