REMARK  0 active torsions:
REMARK  status: ('A' for Active; 'I' for Inactive)
ROOT
HETATM    1  C1  UNL     1     -33.430   7.050   3.168  1.00 20.00    -0.059 A 
HETATM    2  C2  UNL     1     -33.576   5.738   2.895  1.00 20.00    -0.055 A 
HETATM    3  C3  UNL     1     -33.139   7.424   1.725  1.00 20.00     0.138 A 
HETATM    4  C4  UNL     1     -33.187   5.891   1.417  1.00 20.00     0.077 A 
HETATM    5  C5  UNL     1     -33.577   7.886   4.456  1.00 20.00     0.045 C 
HETATM    6  C6  UNL     1     -33.933   4.511   3.761  1.00 20.00     0.046 C 
HETATM    7  C7  UNL     1     -31.858   5.208   1.076  1.00 20.00     0.039 C 
HETATM    8 CL8  UNL     1     -31.639   8.382   1.376  1.00 20.00    -0.118 Cl
HETATM    9 CL9  UNL     1     -34.459   5.394   0.224  1.00 20.00    -0.113 Cl
ENDROOT
TORSDOF 0
