REMARK  1 active torsions:
REMARK  status: ('A' for Active; 'I' for Inactive)
REMARK    1  A    between atoms: C3_3  and  C8_8 
ROOT
HETATM    1  C1  UNL     1     -32.011   6.569   1.460  1.00 20.00    -0.025 C 
HETATM    2  C2  UNL     1     -32.875   7.591   1.395  1.00 20.00    -0.024 C 
HETATM    3  C4  UNL     1     -34.111   5.661   1.209  1.00 20.00     0.018 C 
HETATM    4  C5  UNL     1     -32.787   5.356   1.916  1.00 20.00     0.013 C 
HETATM    5  C6  UNL     1     -34.230   7.063   1.820  1.00 20.00     0.024 C 
HETATM    6  C7  UNL     1     -33.154   5.563   3.416  1.00 20.00     0.004 C 
HETATM    7  C8  UNL     1     -34.210   6.738   3.348  1.00 20.00     0.020 C 
HETATM    8  C9  UNL     1     -33.639   4.266   4.058  1.00 20.00     0.012 C 
HETATM    9  C10 UNL     1     -35.614   6.405   3.865  1.00 20.00     0.024 C 
ENDROOT
BRANCH   7  10
HETATM   10  C3  UNL     1     -33.739   7.923   4.155  1.00 20.00     0.241 C 
HETATM   11  O11 UNL     1     -32.747   7.899   4.875  1.00 20.00    -0.306 OA
ENDBRANCH   7  10
TORSDOF 1
