REMARK  0 active torsions:
REMARK  status: ('A' for Active; 'I' for Inactive)
ROOT
HETATM    1  C1  UNL     1     -35.845   6.023   4.002  1.00 20.00     0.012 C 
HETATM    2  C2  UNL     1     -34.697   6.166   3.684  1.00 20.00    -0.112 C 
HETATM    3  C3  UNL     1     -33.282   7.820   0.816  1.00 20.00    -0.026 C 
HETATM    4  C4  UNL     1     -33.658   6.531   0.832  1.00 20.00    -0.024 C 
HETATM    5  C5  UNL     1     -31.034   7.279   1.674  1.00 20.00     0.009 C 
HETATM    6  C6  UNL     1     -31.468   5.794   1.669  1.00 20.00     0.010 C 
HETATM    7  C7  UNL     1     -32.895   7.846   3.250  1.00 20.00     0.026 C 
HETATM    8  C8  UNL     1     -33.286   6.342   3.294  1.00 20.00     0.072 C 
HETATM    9  C9  UNL     1     -32.267   8.188   1.878  1.00 20.00     0.009 C 
HETATM   10  C10 UNL     1     -32.994   5.694   1.910  1.00 20.00     0.023 C 
ENDROOT
TORSDOF 0
