REMARK  0 active torsions:
REMARK  status: ('A' for Active; 'I' for Inactive)
ROOT
HETATM    1  C1  UNL     1     -32.265   9.509   0.272  1.00 20.00     0.012 C 
HETATM    2  C2  UNL     1     -32.338   8.570   1.016  1.00 20.00    -0.112 C 
HETATM    3  C3  UNL     1     -33.734   5.437   3.508  1.00 20.00    -0.026 C 
HETATM    4  C4  UNL     1     -33.198   5.115   2.319  1.00 20.00    -0.024 C 
HETATM    5  C5  UNL     1     -35.317   7.024   2.482  1.00 20.00     0.009 C 
HETATM    6  C6  UNL     1     -34.703   6.640   1.116  1.00 20.00     0.010 C 
HETATM    7  C7  UNL     1     -33.087   7.815   3.282  1.00 20.00     0.026 C 
HETATM    8  C8  UNL     1     -32.427   7.419   1.930  1.00 20.00     0.072 C 
HETATM    9  C9  UNL     1     -34.261   6.855   3.596  1.00 20.00     0.009 C 
HETATM   10  C10 UNL     1     -33.218   6.239   1.299  1.00 20.00     0.023 C 
ENDROOT
TORSDOF 0
