REMARK  0 active torsions:
REMARK  status: ('A' for Active; 'I' for Inactive)
ROOT
HETATM    1  C1  UNL     1     -34.685   7.378   4.206  1.00 20.00     0.001 C 
HETATM    2  C2  UNL     1     -31.463   6.135   0.627  1.00 20.00     0.001 C 
HETATM    3  C3  UNL     1     -33.287   7.571   3.601  1.00 20.00     0.005 C 
HETATM    4  C4  UNL     1     -31.648   7.186   1.707  1.00 20.00     0.005 C 
HETATM    5  C5  UNL     1     -35.210   5.942   4.247  1.00 20.00     0.005 C 
HETATM    6  C6  UNL     1     -32.019   4.871   1.266  1.00 20.00     0.005 C 
HETATM    7  C7  UNL     1     -34.062   3.608   3.929  1.00 20.00     0.010 A 
HETATM    8  C8  UNL     1     -33.048   6.886   2.251  1.00 20.00    -0.010 C 
HETATM    9  C9  UNL     1     -34.132   4.961   4.584  1.00 20.00    -0.010 A 
HETATM   10  C10 UNL     1     -33.153   5.340   2.199  1.00 20.00    -0.006 C 
HETATM   11  C11 UNL     1     -33.068   4.678   3.550  1.00 20.00    -0.006 A 
ENDROOT
TORSDOF 0
