REMARK  0 active torsions:
REMARK  status: ('A' for Active; 'I' for Inactive)
ROOT
HETATM    1  C1  UNL     1     -31.617   6.353   1.300  1.00 20.00     0.021 A 
HETATM    2  C2  UNL     1     -32.661   5.417   1.726  1.00 20.00     0.029 A 
HETATM    3  C3  UNL     1     -34.839   4.845   4.491  1.00 20.00     0.025 A 
HETATM    4  C4  UNL     1     -31.601   7.602   1.815  1.00 20.00     0.107 A 
HETATM    5  C5  UNL     1     -34.570   7.309   4.027  1.00 20.00     0.101 C 
HETATM    6  C6  UNL     1     -34.709   5.249   3.243  1.00 20.00     0.038 A 
HETATM    7  C7  UNL     1     -35.295   6.186   4.261  1.00 20.00     0.028 A 
HETATM    8  C8  UNL     1     -33.536   5.852   2.648  1.00 20.00     0.044 A 
HETATM    9  N9  UNL     1     -32.538   8.013   2.743  1.00 20.00    -0.306 N 
HETATM   10  N10 UNL     1     -33.480   7.141   3.187  1.00 20.00    -0.274 N 
HETATM   11  H16 UNL     1     -32.461   8.937   3.152  1.00 20.00     0.186 HD
ENDROOT
TORSDOF 0
