REMARK  0 active torsions:
REMARK  status: ('A' for Active; 'I' for Inactive)
ROOT
HETATM    1  C1  UNL     1     -34.559   4.419   4.260  1.00 20.00     0.013 C 
HETATM    2  C2  UNL     1     -34.120   5.360   3.657  1.00 20.00    -0.104 C 
HETATM    3  C3  UNL     1     -34.000   6.627   1.481  1.00 20.00     0.069 A 
HETATM    4  C4  UNL     1     -33.592   6.491   2.932  1.00 20.00     0.057 A 
HETATM    5  C5  UNL     1     -32.585   6.234   1.815  1.00 20.00     0.133 A 
HETATM    6  C6  UNL     1     -33.512   7.753   3.754  1.00 20.00     0.032 C 
HETATM    7 CL7  UNL     1     -31.308   7.406   1.482  1.00 20.00    -0.100 Cl
HETATM    8 CL8  UNL     1     -32.091   4.582   1.420  1.00 20.00    -0.100 Cl
ENDROOT
TORSDOF 0
