REMARK  1 active torsions:
REMARK  status: ('A' for Active; 'I' for Inactive)
REMARK    1  A    between atoms: C2_2  and  C12_12 
ROOT
HETATM    1  C1  UNL     1     -31.274   7.310   1.517  1.00 20.00    -0.023 C 
HETATM    2  C2  UNL     1     -32.313   8.135   1.276  1.00 20.00    -0.075 C 
HETATM    3  C3  UNL     1     -31.492   5.960   2.169  1.00 20.00     0.033 C 
HETATM    4  C4  UNL     1     -33.825   6.120   1.169  1.00 20.00     0.015 C 
HETATM    5  C5  UNL     1     -33.670   7.605   1.662  1.00 20.00     0.023 C 
HETATM    6  C6  UNL     1     -32.998   5.766   2.450  1.00 20.00    -0.002 C 
HETATM    7  C7  UNL     1     -33.732   7.000   3.136  1.00 20.00    -0.036 C 
HETATM    8  C8  UNL     1     -32.979   7.737   4.252  1.00 20.00     0.016 C 
HETATM    9  C9  UNL     1     -35.154   6.709   3.656  1.00 20.00     0.016 C 
ENDROOT
BRANCH   2  10
HETATM   10  C12 UNL     1     -32.208   9.488   0.660  1.00 20.00     0.006 C 
HETATM   11  C10 UNL     1     -32.986   9.542  -0.654  1.00 20.00     0.014 C 
HETATM   12  C11 UNL     1     -32.702  10.569   1.622  1.00 20.00     0.014 C 
ENDBRANCH   2  10
TORSDOF 1
