REMARK  1 active torsions:
REMARK  status: ('A' for Active; 'I' for Inactive)
REMARK    1  A    between atoms: C8_8  and  C9_9 
ROOT
HETATM    1  C1  UNL     1     -31.921   5.457   0.877  1.00 20.00     0.014 C 
HETATM    2  C2  UNL     1     -34.619   7.000   4.004  1.00 20.00     0.014 C 
HETATM    3  C3  UNL     1     -32.230   6.391   1.565  1.00 20.00    -0.094 C 
HETATM    4  C4  UNL     1     -33.700   7.231   3.268  1.00 20.00    -0.094 C 
HETATM    5  C7  UNL     1     -31.502   8.415   2.886  1.00 20.00     0.043 A 
HETATM    6  C9  UNL     1     -32.463   8.918   1.840  1.00 20.00     0.025 A 
HETATM    7  C10 UNL     1     -32.600   7.507   2.388  1.00 20.00     0.089 A 
ENDROOT
BRANCH   6   8
HETATM    8  C8  UNL     1     -32.021   9.251   0.421  1.00 20.00    -0.008 A 
HETATM    9  C5  UNL     1     -32.981   9.305  -0.735  1.00 20.00     0.005 A 
HETATM   10  C6  UNL     1     -32.331  10.566  -0.238  1.00 20.00     0.005 A 
ENDBRANCH   6   8
TORSDOF 1
