REMARK  0 active torsions:
REMARK  status: ('A' for Active; 'I' for Inactive)
ROOT
HETATM    1  C1  UNL     1     -32.408   9.841  -0.009  1.00 20.00     0.013 C 
HETATM    2  C2  UNL     1     -32.291   8.887   0.711  1.00 20.00    -0.106 C 
HETATM    3  C3  UNL     1     -31.791   8.007   3.023  1.00 20.00     0.041 A 
HETATM    4  C4  UNL     1     -33.195   7.602   2.673  1.00 20.00     0.079 A 
HETATM    5  C5  UNL     1     -32.150   7.742   1.577  1.00 20.00     0.033 A 
HETATM    6  C6  UNL     1     -31.541   6.535   0.915  1.00 20.00     0.030 C 
HETATM    7 BR7  UNL     1     -33.813   5.888   3.244  1.00 20.00    -0.089 Br
ENDROOT
TORSDOF 0
