REMARK  0 active torsions:
REMARK  status: ('A' for Active; 'I' for Inactive)
ROOT
HETATM    1  C1  UNL     1     -34.207   6.768   3.520  1.00 20.00    -0.004 C 
HETATM    2  C2  UNL     1     -33.684   6.137   2.333  1.00 20.00    -0.003 C 
HETATM    3  C3  UNL     1     -33.556   7.777   4.116  1.00 20.00    -0.025 C 
HETATM    4  C4  UNL     1     -32.643   6.661   1.669  1.00 20.00    -0.011 C 
HETATM    5  C5  UNL     1     -32.256   8.320   3.585  1.00 20.00     0.047 C 
HETATM    6  C6  UNL     1     -31.952   7.910   2.132  1.00 20.00     0.084 C 
HETATM    7 BR7  UNL     1     -32.529   9.343   0.916  1.00 20.00    -0.087 Br
ENDROOT
TORSDOF 0
