REMARK  1 active torsions:
REMARK  status: ('A' for Active; 'I' for Inactive)
REMARK    1  A    between atoms: C4_4  and  C6_6 
ROOT
HETATM    1  C1  UNL     1     -32.770   9.988   0.001  1.00 20.00     0.012 C 
HETATM    2  C2  UNL     1     -32.399   9.164   0.790  1.00 20.00    -0.109 C 
HETATM    3  C3  UNL     1     -32.996   7.997   2.825  1.00 20.00    -0.003 C 
HETATM    4  C4  UNL     1     -33.748   6.893   2.979  1.00 20.00    -0.061 C 
HETATM    5  C7  UNL     1     -33.631   5.703   2.060  1.00 20.00     0.038 C 
HETATM    6  C8  UNL     1     -32.859   6.002   0.772  1.00 20.00     0.006 C 
HETATM    7  C9  UNL     1     -31.607   6.829   1.056  1.00 20.00     0.021 C 
HETATM    8  C10 UNL     1     -31.943   8.153   1.760  1.00 20.00     0.087 C 
ENDROOT
BRANCH   4   9
HETATM    9  C6  UNL     1     -34.719   6.789   4.041  1.00 20.00    -0.004 C 
HETATM   10  C5  UNL     1     -35.451   5.669   4.161  1.00 20.00     0.012 C 
ENDBRANCH   4   9
TORSDOF 1
