REMARK  0 active torsions:
REMARK  status: ('A' for Active; 'I' for Inactive)
ROOT
HETATM    1  C1  UNL     1     -33.230   6.402   2.326  1.00 20.00    -0.027 A 
HETATM    2  C2  UNL     1     -32.154   6.847   1.653  1.00 20.00    -0.010 A 
HETATM    3  C3  UNL     1     -33.481   7.726   3.011  1.00 20.00     0.051 A 
HETATM    4  C4  UNL     1     -32.228   8.245   2.247  1.00 20.00     0.035 A 
HETATM    5  C5  UNL     1     -31.048   8.652   3.118  1.00 20.00     0.032 C 
HETATM    6 BR6  UNL     1     -32.613   9.582   0.873  1.00 20.00    -0.081 Br
ENDROOT
TORSDOF 0
