REMARK  2 active torsions:
REMARK  status: ('A' for Active; 'I' for Inactive)
REMARK    1  A    between atoms: C7_7  and  C9_9 
REMARK    2  A    between atoms: C8_8  and  C10_10 
ROOT
HETATM    1  C1  UNL     1     -35.620   6.231   3.976  1.00 20.00     0.012 C 
HETATM    2  C2  UNL     1     -34.621   6.808   3.646  1.00 20.00    -0.112 C 
HETATM    3  C6  UNL     1     -33.427   7.498   3.251  1.00 20.00     0.074 A 
HETATM    4  C9  UNL     1     -32.779   7.109   1.940  1.00 20.00     0.011 A 
HETATM    5  C10 UNL     1     -33.498   8.419   2.052  1.00 20.00     0.011 A 
ENDROOT
BRANCH   4   6
HETATM    6  C7  UNL     1     -31.364   7.504   1.521  1.00 20.00    -0.008 C 
HETATM    7  C3  UNL     1     -31.441   7.977   0.050  1.00 20.00     0.005 C 
HETATM    8  C4  UNL     1     -32.185   9.331   0.166  1.00 20.00     0.005 C 
HETATM    9  C8  UNL     1     -32.435   9.453   1.688  1.00 20.00    -0.008 C 
HETATM   10  C5  UNL     1     -31.130   8.848   2.227  1.00 20.00     0.010 C 
ENDBRANCH   4   6
TORSDOF 2
