REMARK  2 active torsions:
REMARK  status: ('A' for Active; 'I' for Inactive)
REMARK    1  A    between atoms: C6_6  and  C10_10 
REMARK    2  A    between atoms: C7_7  and  C11_11 
ROOT
HETATM    1  C1  UNL     1     -33.352   7.831   4.542  1.00 20.00    -0.025 C 
HETATM    2  C2  UNL     1     -34.547   7.405   4.979  1.00 20.00    -0.025 C 
HETATM    3  C3  UNL     1     -34.763   7.817   2.719  1.00 20.00     0.017 C 
HETATM    4  C4  UNL     1     -33.291   7.549   3.057  1.00 20.00     0.013 C 
HETATM    5  C5  UNL     1     -35.286   6.846   3.785  1.00 20.00     0.013 C 
HETATM    6  C6  UNL     1     -33.182   6.008   2.891  1.00 20.00    -0.002 C 
HETATM    7  C7  UNL     1     -34.617   5.528   3.308  1.00 20.00    -0.002 C 
ENDROOT
BRANCH   6   8
HETATM    8  C10 UNL     1     -32.833   5.597   1.465  1.00 20.00     0.001 C 
HETATM    9  C8  UNL     1     -31.496   6.119   1.049  1.00 20.00     0.005 C 
ENDBRANCH   6   8
BRANCH   7  10
HETATM   10  C11 UNL     1     -34.600   4.413   4.346  1.00 20.00     0.001 C 
HETATM   11  C9  UNL     1     -33.923   3.184   3.831  1.00 20.00     0.005 C 
ENDBRANCH   7  10
TORSDOF 2
