REMARK  0 active torsions:
REMARK  status: ('A' for Active; 'I' for Inactive)
ROOT
HETATM    1  C1  UNL     1     -33.581   7.943   3.389  1.00 20.00    -0.007 A 
HETATM    2  C2  UNL     1     -34.222   6.770   3.276  1.00 20.00    -0.014 A 
HETATM    3  C3  UNL     1     -33.492   5.864   2.318  1.00 20.00     0.051 A 
HETATM    4  C4  UNL     1     -32.432   7.941   1.073  1.00 20.00     0.014 A 
HETATM    5  C5  UNL     1     -32.359   8.018   2.572  1.00 20.00     0.014 A 
HETATM    6  C6  UNL     1     -32.287   6.672   1.870  1.00 20.00    -0.002 A 
HETATM    7 BR7  UNL     1     -35.769   6.227   4.094  1.00 20.00    -0.056 Br
ENDROOT
TORSDOF 0
