REMARK  1 active torsions:
REMARK  status: ('A' for Active; 'I' for Inactive)
REMARK    1  A    between atoms: C5_5  and  C6_6 
ROOT
HETATM    1  C1  UNL     1     -33.929   7.807   1.893  1.00 20.00     0.024 A 
HETATM    2  C2  UNL     1     -31.366   7.292   1.714  1.00 20.00     0.275 C 
HETATM    3  C3  UNL     1     -32.808   5.468   2.215  1.00 20.00     0.285 C 
HETATM    4  C4  UNL     1     -32.535   7.840   2.463  1.00 20.00     0.030 A 
HETATM    5  C5  UNL     1     -33.429   6.705   2.803  1.00 20.00     0.051 A 
HETATM    6  N7  UNL     1     -31.771   5.942   1.273  1.00 20.00     0.084 N 
HETATM    7  H18 UNL     1     -32.203   6.030   0.352  1.00 20.00     0.315 HD
ENDROOT
BRANCH   5   8
HETATM    8  C6  UNL     1     -34.012   6.585   4.175  1.00 20.00     0.363 C 
HETATM    9  F8  UNL     1     -35.116   5.793   4.143  1.00 20.00    -0.214 F 
HETATM   10  F9  UNL     1     -34.427   7.804   4.611  1.00 20.00    -0.214 F 
ENDBRANCH   5   8
TORSDOF 1
