REMARK  0 active torsions:
REMARK  status: ('A' for Active; 'I' for Inactive)
ROOT
HETATM    1  C1  UNL     1     -33.181   6.986   2.578  1.00 20.00    -0.075 C 
HETATM    2  C2  UNL     1     -32.369   7.014   1.519  1.00 20.00     0.015 C 
HETATM    3  C3  UNL     1     -33.293   7.858   3.808  1.00 20.00     0.036 C 
HETATM    4  C4  UNL     1     -34.688   7.218   3.960  1.00 20.00     0.024 C 
HETATM    5  C5  UNL     1     -34.326   6.078   2.979  1.00 20.00     0.086 C 
HETATM    6 BR6  UNL     1     -33.738   4.421   3.786  1.00 20.00    -0.086 Br
ENDROOT
TORSDOF 0
