REMARK  4 active torsions:
REMARK  status: ('A' for Active; 'I' for Inactive)
REMARK    1  A    between atoms: C1_1  and  C7_7 
REMARK    2  A    between atoms: C2_2  and  C9_9 
REMARK    3  A    between atoms: C9_9  and  C11_11 
REMARK    4  A    between atoms: C10_10  and  C11_11 
ROOT
HETATM    1  C1  UNL     1     -33.609   7.336   3.422  1.00 20.00    -0.098 C 
HETATM    2  C2  UNL     1     -34.401   6.498   3.758  1.00 20.00    -0.106 C 
ENDROOT
BRANCH   1   3
HETATM    3  C7  UNL     1     -32.641   8.360   3.011  1.00 20.00     0.087 C 
HETATM    4  C4  UNL     1     -31.757   7.827   1.929  1.00 20.00    -0.014 C 
HETATM    5  C3  UNL     1     -32.044   8.357   0.736  1.00 20.00    -0.029 C 
HETATM    6  C5  UNL     1     -33.177   9.324   0.819  1.00 20.00     0.028 C 
HETATM    7  C6  UNL     1     -33.315   9.556   2.327  1.00 20.00     0.025 C 
ENDBRANCH   1   3
BRANCH   2   8
HETATM    8  C9  UNL     1     -35.371   5.474   4.168  1.00 20.00     0.094 C 
BRANCH   8   9
HETATM    9  C11 UNL     1     -34.707   4.396   5.024  1.00 20.00     0.012 C 
BRANCH   9  10
HETATM   10  C10 UNL     1     -33.559   3.719   4.274  1.00 20.00    -0.004 C 
HETATM   11  C8  UNL     1     -32.870   2.674   5.137  1.00 20.00     0.005 C 
ENDBRANCH   9  10
ENDBRANCH   8   9
ENDBRANCH   2   8
TORSDOF 4
