REMARK  0 active torsions:
REMARK  status: ('A' for Active; 'I' for Inactive)
ROOT
HETATM    1  C1  UNL     1     -33.342   5.226   0.836  1.00 20.00     0.014 C 
HETATM    2  C2  UNL     1     -33.022   6.235   1.402  1.00 20.00    -0.090 C 
HETATM    3  C3  UNL     1     -32.824  10.026   1.257  1.00 20.00     0.013 A 
HETATM    4  C4  UNL     1     -32.696   9.180  -0.013  1.00 20.00     0.013 A 
HETATM    5  C5  UNL     1     -31.201   7.954   1.878  1.00 20.00     0.052 A 
HETATM    6  C6  UNL     1     -32.641   7.438   2.077  1.00 20.00     0.107 A 
HETATM    7  C7  UNL     1     -32.352   8.644   1.302  1.00 20.00    -0.005 A 
HETATM    8 CL8  UNL     1     -33.337   7.621   3.687  1.00 20.00    -0.104 Cl
ENDROOT
TORSDOF 0
