REMARK  1 active torsions:
REMARK  status: ('A' for Active; 'I' for Inactive)
REMARK    1  A    between atoms: C3_3  and  C6_6 
ROOT
HETATM    1  C1  UNL     1     -34.928   6.671   4.001  1.00 20.00     0.013 C 
HETATM    2  C2  UNL     1     -34.035   6.789   3.208  1.00 20.00    -0.107 C 
HETATM    3  C5  UNL     1     -31.695   7.605   2.733  1.00 20.00     0.033 A 
HETATM    4  C6  UNL     1     -32.628   8.352   1.819  1.00 20.00     0.030 A 
HETATM    5  C7  UNL     1     -32.961   6.932   2.255  1.00 20.00     0.027 A 
HETATM    6  C10 UNL     1     -32.822   5.780   1.294  1.00 20.00     0.030 C 
ENDROOT
BRANCH   4   7
HETATM    7  C3  UNL     1     -32.204   8.637   0.456  1.00 20.00    -0.018 C 
HETATM    8  C4  UNL     1     -32.435   9.752  -0.263  1.00 20.00    -0.091 C 
HETATM    9  C8  UNL     1     -31.924   9.891  -1.670  1.00 20.00     0.042 C 
HETATM   10  C9  UNL     1     -33.202  10.936   0.255  1.00 20.00     0.042 C 
ENDBRANCH   4   7
TORSDOF 1
