REMARK  1 active torsions:
REMARK  status: ('A' for Active; 'I' for Inactive)
REMARK    1  A    between atoms: C2_2  and  C6_6 
ROOT
HETATM    1  C3  UNL     1     -33.000   5.692   1.484  1.00 20.00     0.006 C 
HETATM    2  C4  UNL     1     -33.974   6.732   0.902  1.00 20.00     0.006 C 
HETATM    3  C5  UNL     1     -31.458   7.502   2.177  1.00 20.00     0.014 C 
HETATM    4  C6  UNL     1     -32.419   8.586   1.632  1.00 20.00     0.012 C 
HETATM    5  C7  UNL     1     -32.425   6.418   2.720  1.00 20.00    -0.006 C 
HETATM    6  C8  UNL     1     -33.812   7.931   1.870  1.00 20.00     0.001 C 
HETATM    7  C9  UNL     1     -33.630   7.235   3.248  1.00 20.00    -0.040 C 
HETATM    8  C10 UNL     1     -33.300   8.177   4.422  1.00 20.00     0.015 C 
HETATM    9  C11 UNL     1     -34.834   6.388   3.705  1.00 20.00     0.015 C 
ENDROOT
BRANCH   4  10
HETATM   10  C2  UNL     1     -32.129   9.007   0.228  1.00 20.00    -0.032 C 
HETATM   11  C1  UNL     1     -32.387  10.226  -0.256  1.00 20.00     0.007 C 
ENDBRANCH   4  10
TORSDOF 1
