REMARK  0 active torsions:
REMARK  status: ('A' for Active; 'I' for Inactive)
ROOT
HETATM    1  C1  UNL     1     -33.882   4.488   3.969  1.00 20.00     0.179 C 
HETATM    2  C2  UNL     1     -34.769   8.088   4.213  1.00 20.00    -0.010 C 
HETATM    3  C3  UNL     1     -33.690   8.596   3.600  1.00 20.00    -0.023 C 
HETATM    4  C4  UNL     1     -35.131   6.635   4.180  1.00 20.00     0.161 C 
HETATM    5  C5  UNL     1     -33.383   6.389   2.437  1.00 20.00     0.143 C 
HETATM    6  C6  UNL     1     -32.756   7.748   2.779  1.00 20.00     0.022 C 
HETATM    7  C7  UNL     1     -32.346   8.473   1.497  1.00 20.00     0.016 C 
HETATM    8  N8  UNL     1     -33.781   3.362   4.230  1.00 20.00    -0.172 NA
HETATM    9  N9  UNL     1     -33.998   5.797   3.666  1.00 20.00    -0.316 N 
ENDROOT
TORSDOF 0
