REMARK  1 active torsions:
REMARK  status: ('A' for Active; 'I' for Inactive)
REMARK    1  A    between atoms: C7_7  and  C11_11 
ROOT
HETATM    1  C1  UNL     1     -33.284   6.779   2.345  1.00 20.00    -0.084 C 
HETATM    2  C2  UNL     1     -33.917   6.170   3.354  1.00 20.00     0.014 C 
HETATM    3  C3  UNL     1     -33.511   8.216   1.928  1.00 20.00     0.044 C 
HETATM    4  C4  UNL     1     -30.955   8.517   1.490  1.00 20.00     0.016 A 
HETATM    5  C5  UNL     1     -32.160   6.182   1.515  1.00 20.00     0.014 C 
HETATM    6  C6  UNL     1     -31.551   7.343   0.755  1.00 20.00     0.003 A 
HETATM    7  C7  UNL     1     -32.379   8.574   0.985  1.00 20.00    -0.029 A 
HETATM    8  C8  UNL     1     -32.680   5.115   0.555  1.00 20.00     0.015 C 
ENDROOT
BRANCH   7   9
HETATM    9  C11 UNL     1     -32.705   9.483  -0.157  1.00 20.00    -0.014 C 
HETATM   10  C9  UNL     1     -33.266  10.830   0.331  1.00 20.00     0.010 C 
HETATM   11  C10 UNL     1     -31.479   9.735  -1.051  1.00 20.00     0.010 C 
ENDBRANCH   7   9
TORSDOF 1
