REMARK  1 active torsions:
REMARK  status: ('A' for Active; 'I' for Inactive)
REMARK    1  A    between atoms: C3_3  and  C6_6 
ROOT
HETATM    1  C1  UNL     1     -32.441   9.792  -0.445  1.00 20.00     0.013 C 
HETATM    2  C2  UNL     1     -32.366   8.923   0.380  1.00 20.00    -0.107 C 
HETATM    3  C5  UNL     1     -31.476   8.176   2.619  1.00 20.00     0.033 A 
HETATM    4  C6  UNL     1     -32.978   8.143   2.696  1.00 20.00     0.030 A 
HETATM    5  C7  UNL     1     -32.276   7.879   1.371  1.00 20.00     0.027 A 
HETATM    6  C10 UNL     1     -32.199   6.485   0.805  1.00 20.00     0.030 C 
ENDROOT
BRANCH   4   7
HETATM    7  C3  UNL     1     -33.624   7.063   3.428  1.00 20.00    -0.018 C 
HETATM    8  C4  UNL     1     -34.887   6.615   3.293  1.00 20.00    -0.091 C 
HETATM    9  C8  UNL     1     -35.405   5.481   4.133  1.00 20.00     0.042 C 
HETATM   10  C9  UNL     1     -35.876   7.187   2.317  1.00 20.00     0.042 C 
ENDBRANCH   4   7
TORSDOF 1
