REMARK  0 active torsions:
REMARK  status: ('A' for Active; 'I' for Inactive)
ROOT
HETATM    1  C1  UNL     1     -33.733   6.758   3.207  1.00 20.00     0.129 C 
HETATM    2  C2  UNL     1     -33.069   7.894   2.954  1.00 20.00     0.136 C 
HETATM    3  C3  UNL     1     -33.425   5.453   2.542  1.00 20.00     0.073 C 
HETATM    4  C4  UNL     1     -32.525   5.602   1.315  1.00 20.00     0.008 C 
HETATM    5  C5  UNL     1     -31.390   6.590   1.582  1.00 20.00     0.016 C 
HETATM    6  C6  UNL     1     -31.910   7.995   1.984  1.00 20.00     0.009 C 
HETATM    7  C7  UNL     1     -32.384   8.767   0.740  1.00 20.00     0.022 C 
HETATM    8  C8  UNL     1     -30.758   8.776   2.639  1.00 20.00     0.022 C 
HETATM    9  F9  UNL     1     -34.748   6.795   4.100  1.00 20.00    -0.208 F 
HETATM   10  F10 UNL     1     -33.461   9.014   3.607  1.00 20.00    -0.207 F 
ENDROOT
TORSDOF 0
