REMARK  1 active torsions:
REMARK  status: ('A' for Active; 'I' for Inactive)
REMARK    1  A    between atoms: C2_2  and  C4_4 
ROOT
HETATM    1  C1  UNL     1     -34.744   5.054   4.021  1.00 20.00     0.107 C 
HETATM    2  C2  UNL     1     -33.182   5.843   2.324  1.00 20.00     0.118 C 
HETATM    3  C3  UNL     1     -34.023   6.075   3.344  1.00 20.00     0.095 C 
HETATM    4  N5  UNL     1     -35.336   4.226   4.579  1.00 20.00    -0.191 NA
HETATM    5 BR9  UNL     1     -34.326   7.811   3.981  1.00 20.00    -0.039 Br
ENDROOT
BRANCH   2   6
HETATM    6  C4  UNL     1     -32.376   6.825   1.541  1.00 20.00     0.409 C 
HETATM    7  F6  UNL     1     -31.642   6.201   0.584  1.00 20.00    -0.167 F 
HETATM    8  F7  UNL     1     -33.106   7.777   0.910  1.00 20.00    -0.167 F 
HETATM    9  F8  UNL     1     -31.494   7.479   2.341  1.00 20.00    -0.167 F 
ENDBRANCH   2   6
TORSDOF 1
