REMARK  2 active torsions:
REMARK  status: ('A' for Active; 'I' for Inactive)
REMARK    1  A    between atoms: C1_1  and  C4_4 
REMARK    2  A    between atoms: C1_1  and  C5_5 
ROOT
HETATM    1  C1  UNL     1     -33.196   6.745   2.480  1.00 20.00     0.159 C 
HETATM    2  O6  UNL     1     -33.309   5.834   1.670  1.00 20.00    -0.295 OA
ENDROOT
BRANCH   1   3
HETATM    3  C4  UNL     1     -33.956   6.727   3.734  1.00 20.00     0.058 A 
HETATM    4  C2  UNL     1     -34.839   7.896   4.080  1.00 20.00     0.013 A 
HETATM    5  C3  UNL     1     -35.454   6.587   3.685  1.00 20.00     0.013 A 
ENDBRANCH   1   3
BRANCH   1   6
HETATM    6  C5  UNL     1     -32.299   7.931   2.275  1.00 20.00     0.300 C 
HETATM    7  F7  UNL     1     -31.632   7.842   1.093  1.00 20.00    -0.248 F 
ENDBRANCH   1   6
TORSDOF 2
