REMARK  0 active torsions:
REMARK  status: ('A' for Active; 'I' for Inactive)
ROOT
HETATM    1  C1  UNL     1     -30.984   9.369   0.952  1.00 20.00     0.029 C 
HETATM    2  C2  UNL     1     -31.187   8.669   2.273  1.00 20.00     0.042 C 
HETATM    3  C3  UNL     1     -32.100   6.453   1.344  1.00 20.00     0.070 C 
HETATM    4  C4  UNL     1     -32.995   5.453   2.076  1.00 20.00     0.275 C 
HETATM    5  C5  UNL     1     -33.234   7.465   3.226  1.00 20.00     0.309 C 
HETATM    6  C6  UNL     1     -32.410   9.625   0.513  1.00 20.00     0.169 C 
HETATM    7  C7  UNL     1     -32.410   7.810   1.992  1.00 20.00     0.089 C 
HETATM    8  C8  UNL     1     -34.630   5.582   3.865  1.00 20.00     0.310 C 
HETATM    9  N9  UNL     1     -33.977   6.286   2.771  1.00 20.00     0.087 N 
HETATM   10  O10 UNL     1     -33.216   8.577   1.072  1.00 20.00    -0.378 OA
ENDROOT
TORSDOF 0
