REMARK  2 active torsions:
REMARK  status: ('A' for Active; 'I' for Inactive)
REMARK    1  A    between atoms: C1_1  and  C2_2 
REMARK    2  A    between atoms: C2_2  and  C3_3 
ROOT
HETATM    1  C2  UNL     1     -33.561   6.161   2.951  1.00 20.00     0.205 C 
HETATM    2 CL7  UNL     1     -34.364   5.435   1.500  1.00 20.00    -0.092 Cl
HETATM    3 CL8  UNL     1     -32.508   7.494   2.326  1.00 20.00    -0.092 Cl
ENDROOT
BRANCH   1   4
HETATM    4  C1  UNL     1     -32.677   5.075   3.586  1.00 20.00     0.164 C 
HETATM    5 CL6  UNL     1     -33.583   3.666   4.195  1.00 20.00    -0.127 Cl
ENDBRANCH   1   4
BRANCH   1   6
HETATM    6  C3  UNL     1     -34.632   6.776   3.869  1.00 20.00     0.355 C 
HETATM    7  F4  UNL     1     -35.346   7.719   3.200  1.00 20.00    -0.184 F 
HETATM    8  F5  UNL     1     -35.531   5.821   4.231  1.00 20.00    -0.184 F 
HETATM    9 CL9  UNL     1     -33.971   7.517   5.345  1.00 20.00    -0.045 Cl
ENDBRANCH   1   6
TORSDOF 2
