REMARK  0 active torsions:
REMARK  status: ('A' for Active; 'I' for Inactive)
ROOT
HETATM    1  C1  UNL     1     -32.424   7.090   1.975  1.00 20.00     0.027 C 
HETATM    2  C2  UNL     1     -32.794   5.605   1.917  1.00 20.00     0.012 C 
HETATM    3  C3  UNL     1     -32.930   7.854   3.195  1.00 20.00     0.167 C 
HETATM    4  C4  UNL     1     -34.658   6.821   4.495  1.00 20.00     0.177 C 
HETATM    5  C5  UNL     1     -32.478   4.843   3.201  1.00 20.00     0.074 C 
HETATM    6  C6  UNL     1     -35.152   5.463   4.017  1.00 20.00     0.100 C 
HETATM    7  O7  UNL     1     -34.322   7.656   3.389  1.00 20.00    -0.390 OA
HETATM    8  S8  UNL     1     -33.920   4.113   4.046  1.00 20.00    -0.167 SA
ENDROOT
TORSDOF 0
