REMARK  0 active torsions:
REMARK  status: ('A' for Active; 'I' for Inactive)
ROOT
HETATM    1  C1  UNL     1     -32.308   9.209   0.368  1.00 20.00    -0.028 C 
HETATM    2  C2  UNL     1     -32.645   9.431   1.644  1.00 20.00    -0.014 C 
HETATM    3  C3  UNL     1     -31.483   7.965   0.229  1.00 20.00     0.043 C 
HETATM    4  C4  UNL     1     -34.320   7.040   3.482  1.00 20.00     0.084 C 
HETATM    5  C5  UNL     1     -33.789   5.761   2.868  1.00 20.00     0.084 C 
HETATM    6  C6  UNL     1     -32.050   8.379   2.530  1.00 20.00     0.083 C 
HETATM    7  C7  UNL     1     -31.784   7.221   1.549  1.00 20.00     0.068 C 
HETATM    8  S8  UNL     1     -32.978   8.108   4.056  1.00 20.00    -0.158 SA
HETATM    9  S9  UNL     1     -33.161   6.054   1.199  1.00 20.00    -0.162 SA
ENDROOT
TORSDOF 0
