REMARK  2 active torsions:
REMARK  status: ('A' for Active; 'I' for Inactive)
REMARK    1  A    between atoms: C1_1  and  C2_2 
REMARK    2  A    between atoms: C1_1  and  C3_3 
ROOT
HETATM    1  C1  UNL     1     -32.893   6.414   3.159  1.00 20.00     0.346 C 
HETATM    2  F4  UNL     1     -33.190   5.083   3.263  1.00 20.00    -0.234 F 
ENDROOT
BRANCH   1   3
HETATM    3  C2  UNL     1     -32.632   6.720   1.691  1.00 20.00     0.357 C 
HETATM    4  F5  UNL     1     -33.746   6.507   0.950  1.00 20.00    -0.184 F 
HETATM    5  F6  UNL     1     -31.672   5.891   1.208  1.00 20.00    -0.184 F 
HETATM    6 CL9  UNL     1     -32.111   8.402   1.468  1.00 20.00    -0.045 Cl
ENDBRANCH   1   3
BRANCH   1   7
HETATM    7  C3  UNL     1     -34.063   7.169   3.777  1.00 20.00     0.357 C 
HETATM    8  F7  UNL     1     -35.028   6.272   4.114  1.00 20.00    -0.184 F 
HETATM    9  F8  UNL     1     -34.614   7.999   2.856  1.00 20.00    -0.184 F 
HETATM   10 CL10 UNL     1     -33.622   8.093   5.222  1.00 20.00    -0.045 Cl
ENDBRANCH   1   7
TORSDOF 2
