REMARK  4 active torsions:
REMARK  status: ('A' for Active; 'I' for Inactive)
REMARK    1  A    between atoms: C2_2  and  C9_9 
REMARK    2  A    between atoms: C7_7  and  C8_8 
REMARK    3  A    between atoms: C8_8  and  C9_9 
REMARK    4  A    between atoms: C9_9  and  O11_11 
ROOT
HETATM    1  C3  UNL     1     -33.113   9.527   1.659  1.00 20.00     0.031 C 
HETATM    2  C4  UNL     1     -31.844   7.708   0.487  1.00 20.00     0.031 C 
HETATM    3  C5  UNL     1     -32.834  10.407   0.447  1.00 20.00     0.168 C 
HETATM    4  C6  UNL     1     -31.636   8.689  -0.661  1.00 20.00     0.168 C 
HETATM    5  C7  UNL     1     -32.027   8.456   1.812  1.00 20.00    -0.008 C 
HETATM    6  O10 UNL     1     -32.719   9.616  -0.736  1.00 20.00    -0.391 OA
ENDROOT
BRANCH   5   7
HETATM    7  C8  UNL     1     -32.361   7.491   2.947  1.00 20.00     0.040 C 
BRANCH   7   8
HETATM    8  C9  UNL     1     -33.441   6.471   2.576  1.00 20.00     0.140 C 
BRANCH   8   9
HETATM    9  C2  UNL     1     -34.152   5.912   3.774  1.00 20.00    -0.006 C 
HETATM   10  C1  UNL     1     -35.477   5.962   3.947  1.00 20.00     0.009 C 
ENDBRANCH   8   9
BRANCH   8  11
HETATM   11  O11 UNL     1     -32.817   5.377   1.904  1.00 20.00    -0.392 OA
HETATM   12  H27 UNL     1     -33.528   4.769   1.652  1.00 20.00     0.210 HD
ENDBRANCH   8  11
ENDBRANCH   7   8
ENDBRANCH   5   7
TORSDOF 4
