REMARK  0 active torsions:
REMARK  status: ('A' for Active; 'I' for Inactive)
ROOT
HETATM    1  C1  UNL     1     -34.425   6.476   3.804  1.00 20.00    -0.081 C 
HETATM    2  C2  UNL     1     -34.710   7.570   4.532  1.00 20.00     0.015 C 
HETATM    3  C3  UNL     1     -35.154   5.183   4.110  1.00 20.00     0.034 C 
HETATM    4  C4  UNL     1     -34.172   4.059   4.424  1.00 20.00     0.004 C 
HETATM    5  C5  UNL     1     -33.131   3.897   3.322  1.00 20.00     0.001 C 
HETATM    6  C6  UNL     1     -32.329   7.454   0.040  1.00 20.00     0.000 C 
HETATM    7  C7  UNL     1     -31.577   7.704   1.341  1.00 20.00     0.001 C 
HETATM    8  C8  UNL     1     -33.169   6.185   0.106  1.00 20.00     0.001 C 
HETATM    9  C9  UNL     1     -32.416   5.218   3.026  1.00 20.00     0.014 C 
HETATM   10  C10 UNL     1     -32.524   7.701   2.543  1.00 20.00     0.014 C 
HETATM   11  C11 UNL     1     -34.099   6.174   1.321  1.00 20.00     0.014 C 
HETATM   12  C12 UNL     1     -33.371   6.400   2.678  1.00 20.00    -0.018 C 
ENDROOT
TORSDOF 0
