REMARK  1 active torsions:
REMARK  status: ('A' for Active; 'I' for Inactive)
REMARK    1  A    between atoms: C4_4  and  C9_9 
ROOT
HETATM    1  C1  UNL     1     -32.425   8.231   1.491  1.00 20.00    -0.089 C 
HETATM    2  C2  UNL     1     -32.745   9.429   0.980  1.00 20.00     0.014 C 
HETATM    3  C5  UNL     1     -31.402   7.328   0.853  1.00 20.00     0.033 C 
HETATM    4  C6  UNL     1     -33.078   7.680   2.733  1.00 20.00     0.042 C 
HETATM    5  C7  UNL     1     -31.992   5.943   0.593  1.00 20.00     0.005 C 
HETATM    6  C8  UNL     1     -32.621   5.344   1.854  1.00 20.00     0.009 C 
HETATM    7  C9  UNL     1     -33.672   6.287   2.462  1.00 20.00     0.017 C 
ENDROOT
BRANCH   7   8
HETATM    8  C4  UNL     1     -34.242   5.695   3.714  1.00 20.00    -0.089 C 
HETATM    9  C3  UNL     1     -33.812   4.523   4.205  1.00 20.00     0.014 C 
HETATM   10  C10 UNL     1     -35.322   6.488   4.389  1.00 20.00     0.043 C 
ENDBRANCH   7   8
TORSDOF 1
