REMARK  0 active torsions:
REMARK  status: ('A' for Active; 'I' for Inactive)
ROOT
HETATM    1  C1  UNL     1     -32.371   8.417   1.166  1.00 20.00    -0.064 A 
HETATM    2  C2  UNL     1     -32.427   9.332   0.225  1.00 20.00    -0.084 C 
HETATM    3  C3  UNL     1     -33.844   6.016   2.579  1.00 20.00     0.002 C 
HETATM    4  C4  UNL     1     -32.935   5.943   1.344  1.00 20.00     0.010 C 
HETATM    5  C5  UNL     1     -33.984   7.512   2.899  1.00 20.00     0.014 C 
HETATM    6  C6  UNL     1     -31.999   7.102   1.504  1.00 20.00     0.028 A 
HETATM    7  C7  UNL     1     -32.646   8.098   2.518  1.00 20.00    -0.013 A 
HETATM    8  C8  UNL     1     -32.989  10.718   0.461  1.00 20.00     0.043 C 
HETATM    9  C9  UNL     1     -31.935   9.087  -1.186  1.00 20.00     0.043 C 
HETATM   10  C10 UNL     1     -31.809   8.677   3.612  1.00 20.00     0.021 C 
ENDROOT
TORSDOF 0
