REMARK  0 active torsions:
REMARK  status: ('A' for Active; 'I' for Inactive)
ROOT
HETATM    1  C1  UNL     1     -34.418   6.977   1.759  1.00 20.00     0.036 A 
HETATM    2  C2  UNL     1     -32.922   6.837   1.931  1.00 20.00    -0.025 A 
HETATM    3  C3  UNL     1     -33.858   6.760   3.146  1.00 20.00     0.041 A 
HETATM    4  C4  UNL     1     -32.066   8.067   1.737  1.00 20.00     0.016 C 
HETATM    5  C5  UNL     1     -32.271   5.582   1.398  1.00 20.00     0.016 C 
HETATM    6  C6  UNL     1     -33.938   7.885   4.139  1.00 20.00     0.033 C 
HETATM    7 CL7  UNL     1     -34.156   5.164   3.888  1.00 20.00    -0.119 Cl
ENDROOT
TORSDOF 0
