REMARK  0 active torsions:
REMARK  status: ('A' for Active; 'I' for Inactive)
ROOT
HETATM    1  C1  UNL     1     -31.971   9.629  -0.282  1.00 20.00     0.010 A 
HETATM    2  C2  UNL     1     -32.932  10.259   0.690  1.00 20.00     0.010 A 
HETATM    3  C3  UNL     1     -33.547   7.814   3.608  1.00 20.00     0.010 A 
HETATM    4  C4  UNL     1     -32.742   6.564   3.376  1.00 20.00     0.010 A 
HETATM    5  C5  UNL     1     -33.160   7.632   0.989  1.00 20.00     0.019 C 
HETATM    6  C6  UNL     1     -31.498   8.502   2.068  1.00 20.00     0.019 C 
HETATM    7  C7  UNL     1     -32.384   8.889   0.950  1.00 20.00    -0.038 A 
HETATM    8  C8  UNL     1     -32.687   7.684   2.388  1.00 20.00    -0.038 A 
ENDROOT
TORSDOF 0
