REMARK  0 active torsions:
REMARK  status: ('A' for Active; 'I' for Inactive)
ROOT
HETATM    1  C1  UNL     1     -32.430   7.703   4.766  1.00 20.00     0.001 C 
HETATM    2  C2  UNL     1     -33.865   7.143   4.811  1.00 20.00     0.005 C 
HETATM    3  C3  UNL     1     -33.725   5.509   2.815  1.00 20.00     0.005 C 
HETATM    4  C4  UNL     1     -32.887   5.811   1.554  1.00 20.00     0.006 C 
HETATM    5  C5  UNL     1     -32.217   8.736   3.645  1.00 20.00     0.010 C 
HETATM    6  C6  UNL     1     -34.304   7.964   2.497  1.00 20.00     0.014 C 
HETATM    7  C7  UNL     1     -32.193   8.331   1.006  1.00 20.00     0.015 A 
HETATM    8  C8  UNL     1     -34.440   6.751   3.425  1.00 20.00    -0.014 C 
HETATM    9  C9  UNL     1     -32.053   7.038   1.767  1.00 20.00    -0.005 A 
HETATM   10  C10 UNL     1     -32.817   8.201   2.371  1.00 20.00    -0.036 A 
ENDROOT
TORSDOF 0
