REMARK  2 active torsions:
REMARK  status: ('A' for Active; 'I' for Inactive)
REMARK    1  A    between atoms: C6_6  and  C8_8 
REMARK    2  A    between atoms: C7_7  and  C9_9 
ROOT
HETATM    1  C1  UNL     1     -32.511   8.378   0.938  1.00 20.00     0.005 C 
HETATM    2  C2  UNL     1     -32.636   6.975   0.299  1.00 20.00     0.005 C 
HETATM    3  C5  UNL     1     -31.305   6.727   2.198  1.00 20.00     0.010 C 
HETATM    4  C6  UNL     1     -32.033   8.077   2.369  1.00 20.00    -0.010 C 
HETATM    5  C7  UNL     1     -32.513   6.052   1.539  1.00 20.00    -0.010 C 
ENDROOT
BRANCH   4   6
HETATM    6  C8  UNL     1     -33.147   7.572   3.281  1.00 20.00    -0.006 C 
HETATM    7  C3  UNL     1     -34.596   7.688   3.823  1.00 20.00     0.006 C 
HETATM    8  C4  UNL     1     -34.563   6.100   3.692  1.00 20.00     0.006 C 
HETATM    9  C9  UNL     1     -33.742   6.401   2.402  1.00 20.00    -0.006 C 
ENDBRANCH   4   6
TORSDOF 2
