REMARK  2 active torsions:
REMARK  status: ('A' for Active; 'I' for Inactive)
REMARK    1  A    between atoms: C1_1  and  C2_2 
REMARK    2  A    between atoms: C1_1  and  C3_3 
ROOT
HETATM    1  C2  UNL     1     -33.723   7.310   1.680  1.00 20.00     0.043 A 
HETATM    2  C4  UNL     1     -33.238   5.948   1.730  1.00 20.00     0.013 A 
HETATM    3  C5  UNL     1     -33.611   6.702   3.002  1.00 20.00    -0.023 A 
HETATM    4  C8  UNL     1     -31.838   5.555   1.402  1.00 20.00     0.012 C 
HETATM    5  C9  UNL     1     -34.904   6.315   3.680  1.00 20.00     0.017 C 
HETATM    6  C10 UNL     1     -32.536   7.138   3.968  1.00 20.00     0.017 C 
ENDROOT
BRANCH   1   7
HETATM    7  C1  UNL     1     -33.038   8.328   1.268  1.00 20.00    -0.159 C 
BRANCH   7   8
HETATM    8  C3  UNL     1     -32.347   9.356   0.853  1.00 20.00     0.022 C 
HETATM    9  C6  UNL     1     -30.931   9.228   0.368  1.00 20.00     0.029 C 
HETATM   10  C7  UNL     1     -32.915  10.746   0.824  1.00 20.00     0.029 C 
ENDBRANCH   7   8
ENDBRANCH   1   7
TORSDOF 2
