REMARK  0 active torsions:
REMARK  status: ('A' for Active; 'I' for Inactive)
ROOT
HETATM    1  C1  UNL     1     -31.210   7.481   1.495  1.00 20.00     0.080 A 
HETATM    2  C2  UNL     1     -32.612   6.976   1.361  1.00 20.00     0.207 A 
HETATM    3  C3  UNL     1     -32.370   8.343   1.932  1.00 20.00     0.128 A 
HETATM    4  F4  UNL     1     -33.004   5.962   2.218  1.00 20.00    -0.246 F 
HETATM    5 CL5  UNL     1     -32.612   8.587   3.658  1.00 20.00    -0.103 Cl
HETATM    6 BR6  UNL     1     -32.818   9.853   0.845  1.00 20.00    -0.065 Br
ENDROOT
TORSDOF 0
