REMARK  0 active torsions:
REMARK  status: ('A' for Active; 'I' for Inactive)
ROOT
HETATM    1  C1  UNL     1     -35.541   6.594   4.158  1.00 20.00     0.083 C 
HETATM    2  C2  UNL     1     -33.256   6.778   1.386  1.00 20.00    -0.003 A 
HETATM    3  C3  UNL     1     -32.035   6.111   1.209  1.00 20.00    -0.011 A 
HETATM    4  C4  UNL     1     -32.982   5.395   1.884  1.00 20.00    -0.006 A 
HETATM    5  C5  UNL     1     -32.757   7.643   2.317  1.00 20.00    -0.016 C 
HETATM    6  C6  UNL     1     -34.411   7.557   4.331  1.00 20.00     0.052 C 
HETATM    7  C7  UNL     1     -31.335   7.434   1.614  1.00 20.00     0.023 C 
HETATM    8  C8  UNL     1     -34.175   4.667   4.025  1.00 20.00     0.153 C 
HETATM    9  C9  UNL     1     -33.062   5.508   3.453  1.00 20.00     0.022 C 
HETATM   10  C10 UNL     1     -33.067   7.027   3.835  1.00 20.00     0.007 C 
HETATM   11  N11 UNL     1     -35.463   5.323   4.023  1.00 20.00    -0.305 NA
ENDROOT
TORSDOF 0
