REMARK  2 active torsions:
REMARK  status: ('A' for Active; 'I' for Inactive)
REMARK    1  A    between atoms: C7_7  and  C9_9 
REMARK    2  A    between atoms: C8_8  and  C10_10 
ROOT
HETATM    1  C1  UNL     1     -32.057   9.690  -0.567  1.00 20.00     0.012 C 
HETATM    2  C2  UNL     1     -32.518   9.220   0.437  1.00 20.00    -0.112 C 
HETATM    3  C6  UNL     1     -33.070   8.658   1.637  1.00 20.00     0.074 A 
HETATM    4  C9  UNL     1     -32.110   8.138   2.684  1.00 20.00     0.015 A 
HETATM    5  C10 UNL     1     -32.933   7.166   1.851  1.00 20.00     0.015 A 
ENDROOT
BRANCH   4   6
HETATM    6  C7  UNL     1     -32.478   7.769   4.129  1.00 20.00     0.014 C 
HETATM    7  C3  UNL     1     -33.937   8.038   4.443  1.00 20.00    -0.025 C 
HETATM    8  C4  UNL     1     -34.664   7.180   3.706  1.00 20.00    -0.025 C 
HETATM    9  C8  UNL     1     -33.686   6.342   2.905  1.00 20.00     0.014 C 
HETATM   10  C5  UNL     1     -32.592   6.235   3.989  1.00 20.00     0.018 C 
ENDBRANCH   4   6
TORSDOF 2
