REMARK  0 active torsions:
REMARK  status: ('A' for Active; 'I' for Inactive)
ROOT
HETATM    1  C1  UNL     1     -34.089   6.359   3.293  1.00 20.00     0.411 C 
HETATM    2  C2  UNL     1     -32.515   7.453   2.138  1.00 20.00     0.368 C 
HETATM    3  C3  UNL     1     -32.798   6.142   1.459  1.00 20.00     0.199 C 
HETATM    4  C4  UNL     1     -31.542   5.395   1.046  1.00 20.00     0.070 C 
HETATM    5  O5  UNL     1     -34.911   6.100   4.158  1.00 20.00    -0.229 OA
HETATM    6  O6  UNL     1     -33.628   7.616   3.007  1.00 20.00    -0.257 OA
HETATM    7  O7  UNL     1     -33.503   5.431   2.472  1.00 20.00    -0.265 OA
HETATM    8  F8  UNL     1     -32.485   8.490   1.271  1.00 20.00    -0.214 F 
HETATM    9 CL9  UNL     1     -33.870   6.333   0.039  1.00 20.00    -0.082 Cl
ENDROOT
TORSDOF 0
