REMARK  0 active torsions:
REMARK  status: ('A' for Active; 'I' for Inactive)
ROOT
HETATM    1  C1  UNL     1     -32.216   8.365   1.737  1.00 20.00     0.128 A 
HETATM    2  C2  UNL     1     -33.710   7.968   1.704  1.00 20.00     0.089 A 
HETATM    3  C3  UNL     1     -32.012   7.735   3.134  1.00 20.00     0.089 A 
HETATM    4  C4  UNL     1     -34.375   7.800   4.215  1.00 20.00     0.085 C 
HETATM    5  C5  UNL     1     -33.797   5.848   3.211  1.00 20.00     0.085 C 
HETATM    6  C6  UNL     1     -33.479   7.332   3.076  1.00 20.00    -0.011 A 
HETATM    7  O7  UNL     1     -31.485   8.947   0.964  1.00 20.00    -0.298 OA
HETATM    8  S8  UNL     1     -35.392   6.292   3.997  1.00 20.00    -0.167 SA
ENDROOT
TORSDOF 0
