REMARK  2 active torsions:
REMARK  status: ('A' for Active; 'I' for Inactive)
REMARK    1  A    between atoms: C1_1  and  C2_2 
REMARK    2  A    between atoms: C1_1  and  C3_3 
ROOT
HETATM    1  C1  UNL     1     -33.126   6.344   2.917  1.00 20.00     0.348 C 
HETATM    2  F4  UNL     1     -33.610   5.065   2.926  1.00 20.00    -0.234 F 
ENDROOT
BRANCH   1   3
HETATM    3  C2  UNL     1     -32.826   6.681   1.470  1.00 20.00     0.423 C 
HETATM    4  F5  UNL     1     -31.992   5.787   0.901  1.00 20.00    -0.168 F 
HETATM    5  F6  UNL     1     -33.953   6.730   0.730  1.00 20.00    -0.168 F 
HETATM    6  F7  UNL     1     -32.229   7.892   1.387  1.00 20.00    -0.168 F 
ENDBRANCH   1   3
BRANCH   1   7
HETATM    7  C3  UNL     1     -34.167   7.241   3.587  1.00 20.00     0.294 C 
HETATM    8  F8  UNL     1     -34.518   8.232   2.722  1.00 20.00    -0.204 F 
HETATM    9 CL9  UNL     1     -33.474   8.001   5.047  1.00 20.00    -0.062 Cl
HETATM   10 CL10 UNL     1     -35.634   6.344   4.051  1.00 20.00    -0.062 Cl
ENDBRANCH   1   7
TORSDOF 2
