REMARK  0 active torsions:
REMARK  status: ('A' for Active; 'I' for Inactive)
ROOT
HETATM    1  C1  UNL     1     -31.712   6.685   0.780  1.00 20.00     0.004 A 
HETATM    2  C2  UNL     1     -32.007   7.817   1.559  1.00 20.00     0.034 A 
HETATM    3  C3  UNL     1     -32.310   5.443   1.035  1.00 20.00     0.021 A 
HETATM    4  C4  UNL     1     -34.264   7.919   4.272  1.00 20.00     0.210 A 
HETATM    5  C5  UNL     1     -32.930   7.679   2.608  1.00 20.00     0.086 A 
HETATM    6  C6  UNL     1     -33.499   6.435   2.826  1.00 20.00     0.081 A 
HETATM    7  C7  UNL     1     -33.220   5.290   2.084  1.00 20.00     0.029 A 
HETATM    8  C8  UNL     1     -35.167   5.553   4.420  1.00 20.00     0.140 C 
HETATM    9  C9  UNL     1     -34.514   4.176   4.248  1.00 20.00     0.100 C 
HETATM   10  N10 UNL     1     -33.415   8.592   3.521  1.00 20.00    -0.242 NA
HETATM   11  N11 UNL     1     -34.345   6.618   3.884  1.00 20.00    -0.338 N 
HETATM   12  S12 UNL     1     -34.053   3.790   2.505  1.00 20.00    -0.126 SA
ENDROOT
TORSDOF 0
