REMARK  1 active torsions:
REMARK  status: ('A' for Active; 'I' for Inactive)
REMARK    1  A    between atoms: C2_2  and  C4_4 
ROOT
HETATM    1  C1  UNL     1     -33.570   7.191   3.249  1.00 20.00    -0.010 C 
HETATM    2  C2  UNL     1     -32.947   7.044   2.068  1.00 20.00     0.021 C 
HETATM    3  C3  UNL     1     -34.705   6.371   3.773  1.00 20.00     0.037 C 
HETATM    4 CL5  UNL     1     -33.437   5.741   1.023  1.00 20.00    -0.088 Cl
ENDROOT
BRANCH   2   5
HETATM    5  C4  UNL     1     -31.811   7.865   1.545  1.00 20.00     0.165 C 
HETATM    6 CL6  UNL     1     -32.424   9.252   0.617  1.00 20.00    -0.125 Cl
ENDBRANCH   2   5
TORSDOF 1
