REMARK  1 active torsions:
REMARK  status: ('A' for Active; 'I' for Inactive)
REMARK    1  A    between atoms: C4_4  and  O11_11 
ROOT
HETATM    1  C1  UNL     1     -32.743   8.731   0.871  1.00 20.00    -0.021 C 
HETATM    2  C2  UNL     1     -32.361   7.890  -0.104  1.00 20.00    -0.025 C 
HETATM    3  C3  UNL     1     -33.208   6.851   2.375  1.00 20.00    -0.043 C 
HETATM    4  C4  UNL     1     -34.118   6.642   3.329  1.00 20.00     0.045 C 
HETATM    5  C5  UNL     1     -32.792   5.865   1.289  1.00 20.00     0.046 C 
HETATM    6  C6  UNL     1     -31.050   7.424   1.744  1.00 20.00     0.022 C 
HETATM    7  C7  UNL     1     -32.355   8.094   2.186  1.00 20.00     0.040 C 
HETATM    8  C8  UNL     1     -31.706   6.697   0.562  1.00 20.00     0.013 C 
HETATM    9  C9  UNL     1     -34.480   7.656   4.367  1.00 20.00     0.076 C 
ENDROOT
BRANCH   4  10
HETATM   10  O11 UNL     1     -34.787   5.435   3.399  1.00 20.00    -0.360 OA
HETATM   11  C10 UNL     1     -34.122   4.497   4.208  1.00 20.00     0.209 C 
ENDBRANCH   4  10
TORSDOF 1
