REMARK  2 active torsions:
REMARK  status: ('A' for Active; 'I' for Inactive)
REMARK    1  A    between atoms: C1_1  and  C2_2 
REMARK    2  A    between atoms: C1_1  and  C3_3 
ROOT
HETATM    1  C2  UNL     1     -32.375   8.118   2.492  1.00 20.00     0.043 A 
HETATM    2  C4  UNL     1     -32.278   6.682   2.631  1.00 20.00     0.013 A 
HETATM    3  C5  UNL     1     -33.489   7.447   3.154  1.00 20.00    -0.023 A 
HETATM    4  C8  UNL     1     -32.355   5.732   1.485  1.00 20.00     0.012 C 
HETATM    5  C9  UNL     1     -34.828   7.308   2.471  1.00 20.00     0.017 C 
HETATM    6  C10 UNL     1     -33.596   7.629   4.649  1.00 20.00     0.017 C 
ENDROOT
BRANCH   1   7
HETATM    7  C1  UNL     1     -32.450   8.753   1.366  1.00 20.00    -0.159 C 
BRANCH   7   8
HETATM    8  C3  UNL     1     -32.526   9.393   0.231  1.00 20.00     0.022 C 
HETATM    9  C6  UNL     1     -32.521   8.683  -1.093  1.00 20.00     0.029 C 
HETATM   10  C7  UNL     1     -32.629  10.890   0.159  1.00 20.00     0.029 C 
ENDBRANCH   7   8
ENDBRANCH   1   7
TORSDOF 2
