REMARK  0 active torsions:
REMARK  status: ('A' for Active; 'I' for Inactive)
ROOT
HETATM    1  C1  UNL     1     -33.110   5.840   1.130  1.00 20.00     0.005 C 
HETATM    2  C2  UNL     1     -33.833   5.124   3.407  1.00 20.00     0.005 C 
HETATM    3  C3  UNL     1     -34.112   6.998   0.962  1.00 20.00     0.005 C 
HETATM    4  C4  UNL     1     -34.948   6.170   3.596  1.00 20.00     0.005 C 
HETATM    5  C5  UNL     1     -32.393   8.217   2.211  1.00 20.00     0.010 C 
HETATM    6  C6  UNL     1     -33.059   7.556   4.311  1.00 20.00     0.010 C 
HETATM    7  C7  UNL     1     -32.644   5.695   2.598  1.00 20.00    -0.010 C 
HETATM    8  C8  UNL     1     -33.915   8.051   2.068  1.00 20.00    -0.010 C 
HETATM    9  C9  UNL     1     -34.374   7.595   3.514  1.00 20.00    -0.010 C 
HETATM   10  C10 UNL     1     -32.127   7.073   3.195  1.00 20.00    -0.010 C 
ENDROOT
TORSDOF 0
