REMARK  0 active torsions:
REMARK  status: ('A' for Active; 'I' for Inactive)
ROOT
HETATM    1  C1  UNL     1     -32.107   6.043   1.514  1.00 20.00     0.128 C 
HETATM    2  C2  UNL     1     -31.764   7.462   1.817  1.00 20.00     0.234 C 
HETATM    3  N3  UNL     1     -33.114   5.507   2.112  1.00 20.00    -0.203 NA
HETATM    4  O4  UNL     1     -32.618   7.820   2.889  1.00 20.00    -0.295 OA
HETATM    5  S5  UNL     1     -33.789   6.657   3.127  1.00 20.00     0.137 SA
ENDROOT
TORSDOF 0
