REMARK  3 active torsions:
REMARK  status: ('A' for Active; 'I' for Inactive)
REMARK    1  A    between atoms: C1_1  and  C7_7 
REMARK    2  A    between atoms: C2_2  and  C8_8 
REMARK    3  A    between atoms: C8_8  and  C9_9 
ROOT
HETATM    1  C1  UNL     1     -31.546   7.583   1.459  1.00 20.00     0.157 A 
HETATM    2  C2  UNL     1     -32.110   6.390   2.191  1.00 20.00     0.185 A 
HETATM    3  O10 UNL     1     -31.659   6.298   0.833  1.00 20.00    -0.372 OA
ENDROOT
BRANCH   2   4
HETATM    4  C8  UNL     1     -33.577   6.164   2.381  1.00 20.00     0.204 C 
HETATM    5  F11 UNL     1     -34.016   5.342   1.388  1.00 20.00    -0.246 F 
BRANCH   4   6
HETATM    6  C9  UNL     1     -33.944   5.554   3.743  1.00 20.00     0.014 C 
HETATM    7  C5  UNL     1     -33.715   4.041   3.790  1.00 20.00     0.012 C 
HETATM    8  C6  UNL     1     -35.409   5.856   4.072  1.00 20.00     0.012 C 
ENDBRANCH   4   6
ENDBRANCH   2   4
BRANCH   1   9
HETATM    9  C7  UNL     1     -32.394   8.645   0.857  1.00 20.00     0.009 C 
HETATM   10  C3  UNL     1     -32.821   9.701   1.897  1.00 20.00     0.012 C 
HETATM   11  C4  UNL     1     -31.688   9.353  -0.317  1.00 20.00     0.012 C 
ENDBRANCH   1   9
TORSDOF 3
