REMARK  0 active torsions:
REMARK  status: ('A' for Active; 'I' for Inactive)
ROOT
HETATM    1  C1  UNL     1     -34.167   7.617   4.213  1.00 20.00     0.043 C 
HETATM    2  C2  UNL     1     -33.185   4.827   2.996  1.00 20.00     0.019 C 
HETATM    3  C3  UNL     1     -33.967   4.641   4.067  1.00 20.00     0.114 C 
HETATM    4  C4  UNL     1     -33.214   7.781   3.282  1.00 20.00     0.136 C 
HETATM    5  C5  UNL     1     -35.205   6.558   4.342  1.00 20.00     0.118 C 
HETATM    6  C6  UNL     1     -33.504   5.823   1.929  1.00 20.00     0.203 C 
HETATM    7  N7  UNL     1     -35.159   5.266   4.305  1.00 20.00    -0.273 NA
HETATM    8  O8  UNL     1     -32.836   7.051   2.193  1.00 20.00    -0.359 OA
ENDROOT
TORSDOF 0
