REMARK  0 active torsions:
REMARK  status: ('A' for Active; 'I' for Inactive)
ROOT
HETATM    1  C1  UNL     1     -33.636   7.345   3.780  1.00 20.00     0.141 C 
HETATM    2  C2  UNL     1     -34.034   5.887   3.729  1.00 20.00     0.079 C 
HETATM    3  C3  UNL     1     -33.115   5.122   2.793  1.00 20.00     0.008 C 
HETATM    4  C4  UNL     1     -33.089   5.759   1.406  1.00 20.00     0.017 C 
HETATM    5  C5  UNL     1     -32.841  10.351   1.002  1.00 20.00     0.085 C 
HETATM    6  C6  UNL     1     -31.969   9.533   0.066  1.00 20.00     0.084 C 
HETATM    7  C7  UNL     1     -33.497   8.052   2.427  1.00 20.00     0.130 C 
HETATM    8  C8  UNL     1     -32.618   7.221   1.479  1.00 20.00     0.068 C 
HETATM    9  O9  UNL     1     -33.542   7.918   4.866  1.00 20.00    -0.297 OA
HETATM   10  S10 UNL     1     -32.807   9.724   2.705  1.00 20.00    -0.155 SA
HETATM   11  S11 UNL     1     -32.640   7.874  -0.234  1.00 20.00    -0.162 SA
ENDROOT
TORSDOF 0
