REMARK  1 active torsions:
REMARK  status: ('A' for Active; 'I' for Inactive)
REMARK    1  A    between atoms: C1_1  and  C5_5 
ROOT
HETATM    1  C3  UNL     1     -31.636   6.223   1.619  1.00 20.00     0.207 C 
HETATM    2  C4  UNL     1     -33.946   5.679   1.989  1.00 20.00     0.208 C 
HETATM    3  C5  UNL     1     -32.061   7.596   2.151  1.00 20.00     0.267 C 
HETATM    4  C6  UNL     1     -33.778   6.303   3.383  1.00 20.00     0.172 C 
HETATM    5  C8  UNL     1     -35.148   6.774   3.896  1.00 20.00     0.051 C 
HETATM    6  C9  UNL     1     -33.212   5.270   4.376  1.00 20.00     0.051 C 
HETATM    7  N10 UNL     1     -32.904   7.488   3.344  1.00 20.00     0.104 N 
HETATM    8  O11 UNL     1     -32.707   5.308   1.393  1.00 20.00    -0.386 OA
HETATM    9  H28 UNL     1     -32.314   7.504   4.185  1.00 20.00     0.318 HD
ENDROOT
BRANCH   3  10
HETATM   10  C1  UNL     1     -32.703   8.445   1.092  1.00 20.00     0.006 C 
HETATM   11  C2  UNL     1     -32.019   9.238   0.254  1.00 20.00    -0.033 C 
HETATM   12  C7  UNL     1     -32.658  10.081  -0.799  1.00 20.00     0.036 C 
ENDBRANCH   3  10
TORSDOF 1
