REMARK  1 active torsions:
REMARK  status: ('A' for Active; 'I' for Inactive)
REMARK    1  A    between atoms: C7_7  and  O10_10 
ROOT
HETATM    1  C1  UNL     1     -33.754   3.656   4.676  1.00 20.00     0.013 C 
HETATM    2  C2  UNL     1     -33.904   4.661   4.037  1.00 20.00    -0.102 C 
HETATM    3  C3  UNL     1     -33.408   6.106   1.967  1.00 20.00    -0.040 C 
HETATM    4  C4  UNL     1     -33.569   5.399   0.840  1.00 20.00     0.019 C 
HETATM    5  C5  UNL     1     -33.219   8.182   3.175  1.00 20.00     0.043 C 
HETATM    6  C6  UNL     1     -35.325   6.686   3.567  1.00 20.00     0.034 A 
HETATM    7  C7  UNL     1     -32.566   7.358   2.053  1.00 20.00     0.148 C 
HETATM    8  C8  UNL     1     -33.981   7.189   4.012  1.00 20.00     0.015 A 
HETATM    9  C9  UNL     1     -34.084   5.868   3.271  1.00 20.00     0.052 A 
ENDROOT
BRANCH   7  10
HETATM   10  O10 UNL     1     -31.246   6.988   2.435  1.00 20.00    -0.391 OA
HETATM   11  H20 UNL     1     -30.730   7.808   2.481  1.00 20.00     0.210 HD
ENDBRANCH   7  10
TORSDOF 1
