REMARK  2 active torsions:
REMARK  status: ('A' for Active; 'I' for Inactive)
REMARK    1  A    between atoms: C7_7  and  C9_9 
REMARK    2  A    between atoms: C8_8  and  C10_10 
ROOT
HETATM    1  C1  UNL     1     -33.883   8.222   1.406  1.00 20.00     0.005 C 
HETATM    2  C2  UNL     1     -34.402   6.831   1.021  1.00 20.00     0.005 C 
HETATM    3  C3  UNL     1     -31.650   7.245   1.941  1.00 20.00     0.005 C 
HETATM    4  C4  UNL     1     -32.173   5.845   1.556  1.00 20.00     0.005 C 
HETATM    5  C7  UNL     1     -32.801   8.113   2.491  1.00 20.00    -0.010 C 
HETATM    6  C8  UNL     1     -33.687   5.743   1.838  1.00 20.00    -0.010 C 
ENDROOT
BRANCH   5   7
HETATM    7  C9  UNL     1     -33.347   7.387   3.735  1.00 20.00    -0.006 A 
HETATM    8  C5  UNL     1     -34.725   7.731   4.342  1.00 20.00     0.006 A 
HETATM    9  C6  UNL     1     -35.249   6.339   3.954  1.00 20.00     0.006 A 
HETATM   10  C10 UNL     1     -33.874   5.985   3.348  1.00 20.00    -0.006 A 
ENDBRANCH   5   7
TORSDOF 2
