REMARK  0 active torsions:
REMARK  status: ('A' for Active; 'I' for Inactive)
ROOT
HETATM    1  C1  UNL     1     -32.553   9.596   0.216  1.00 20.00     0.012 C 
HETATM    2  C2  UNL     1     -32.367   9.007   1.245  1.00 20.00    -0.113 C 
HETATM    3  C3  UNL     1     -33.133   8.776   3.585  1.00 20.00     0.020 C 
HETATM    4  C4  UNL     1     -33.755   7.668   4.438  1.00 20.00     0.041 C 
HETATM    5  C5  UNL     1     -32.143   6.762   2.261  1.00 20.00     0.052 C 
HETATM    6  C6  UNL     1     -32.137   8.281   2.513  1.00 20.00     0.067 C 
HETATM    7  C7  UNL     1     -33.466   6.092   2.454  1.00 20.00     0.158 A 
HETATM    8  C8  UNL     1     -34.310   6.548   3.608  1.00 20.00     0.084 A 
HETATM    9  C9  UNL     1     -35.257   5.596   4.256  1.00 20.00     0.049 C 
HETATM   10  O10 UNL     1     -34.643   6.882   2.249  1.00 20.00    -0.370 OA
ENDROOT
TORSDOF 0
