REMARK  0 active torsions:
REMARK  status: ('A' for Active; 'I' for Inactive)
ROOT
HETATM    1  C1  UNL     1     -33.815   8.060   3.595  1.00 20.00     0.011 A 
HETATM    2  C2  UNL     1     -34.692   7.204   4.265  1.00 20.00     0.024 A 
HETATM    3  C3  UNL     1     -33.824   5.284   3.046  1.00 20.00     0.031 A 
HETATM    4  C4  UNL     1     -32.949   7.514   2.661  1.00 20.00    -0.033 A 
HETATM    5  C5  UNL     1     -32.950   6.138   2.395  1.00 20.00    -0.049 A 
HETATM    6  C6  UNL     1     -34.697   5.827   3.992  1.00 20.00     0.034 A 
HETATM    7  C7  UNL     1     -31.955   5.799   1.330  1.00 20.00     0.041 C 
HETATM    8  C8  UNL     1     -31.057   7.047   1.360  1.00 20.00     0.030 C 
HETATM    9  C9  UNL     1     -31.946   8.223   1.804  1.00 20.00     0.116 C 
HETATM   10 CL10 UNL     1     -35.795   4.797   4.830  1.00 20.00    -0.084 Cl
HETATM   11 CL11 UNL     1     -32.753   8.985   0.418  1.00 20.00    -0.120 Cl
ENDROOT
TORSDOF 0
