REMARK  2 active torsions:
REMARK  status: ('A' for Active; 'I' for Inactive)
REMARK    1  A    between atoms: C1_1  and  C2_2 
REMARK    2  A    between atoms: C2_2  and  C3_3 
ROOT
HETATM    1  C2  UNL     1     -32.556   6.692   2.625  1.00 20.00     0.218 C 
HETATM    2 CL8  UNL     1     -33.107   5.812   1.170  1.00 20.00    -0.113 Cl
ENDROOT
BRANCH   1   3
HETATM    3  C1  UNL     1     -31.653   7.845   2.212  1.00 20.00     0.251 C 
HETATM    4  F4  UNL     1     -32.346   8.724   1.441  1.00 20.00    -0.254 F 
ENDBRANCH   1   3
BRANCH   1   5
HETATM    5  C3  UNL     1     -33.760   7.161   3.420  1.00 20.00     0.406 C 
HETATM    6  F5  UNL     1     -33.372   7.765   4.566  1.00 20.00    -0.169 F 
HETATM    7  F6  UNL     1     -34.577   6.139   3.753  1.00 20.00    -0.169 F 
HETATM    8  F7  UNL     1     -34.486   8.061   2.720  1.00 20.00    -0.169 F 
ENDBRANCH   1   5
TORSDOF 2
