REMARK  2 active torsions:
REMARK  status: ('A' for Active; 'I' for Inactive)
REMARK    1  A    between atoms: C7_7  and  C9_9 
REMARK    2  A    between atoms: C8_8  and  C10_10 
ROOT
HETATM    1  C1  UNL     1     -32.875   8.198   0.947  1.00 20.00     0.005 C 
HETATM    2  C2  UNL     1     -34.008   7.200   0.579  1.00 20.00     0.005 C 
HETATM    3  C3  UNL     1     -31.456   6.465   2.021  1.00 20.00     0.005 C 
HETATM    4  C4  UNL     1     -32.328   5.477   1.199  1.00 20.00     0.005 C 
HETATM    5  C7  UNL     1     -32.242   7.764   2.300  1.00 20.00    -0.010 C 
HETATM    6  C8  UNL     1     -33.824   5.878   1.354  1.00 20.00    -0.010 C 
ENDROOT
BRANCH   5   7
HETATM    7  C9  UNL     1     -33.455   7.513   3.206  1.00 20.00    -0.006 C 
HETATM    8  C5  UNL     1     -33.849   7.145   4.664  1.00 20.00     0.006 C 
HETATM    9  C6  UNL     1     -35.056   6.386   3.957  1.00 20.00     0.006 C 
HETATM   10  C10 UNL     1     -33.993   6.074   2.866  1.00 20.00    -0.006 C 
ENDBRANCH   5   7
TORSDOF 2
