REMARK  2 active torsions:
REMARK  status: ('A' for Active; 'I' for Inactive)
REMARK    1  A    between atoms: C4_4  and  C8_8 
REMARK    2  A    between atoms: C9_9  and  O11_11 
ROOT
HETATM    1  C1  UNL     1     -33.130   5.850   2.172  1.00 20.00    -0.079 C 
HETATM    2  C2  UNL     1     -32.038   5.219   1.709  1.00 20.00     0.015 C 
HETATM    3  C5  UNL     1     -34.325   5.055   2.643  1.00 20.00     0.065 C 
HETATM    4  C6  UNL     1     -33.647   7.698   3.774  1.00 20.00     0.016 C 
HETATM    5  C7  UNL     1     -34.857   6.910   4.276  1.00 20.00     0.033 C 
HETATM    6  C8  UNL     1     -33.307   7.357   2.310  1.00 20.00     0.041 C 
HETATM    7  C9  UNL     1     -34.671   5.403   4.091  1.00 20.00     0.122 C 
ENDROOT
BRANCH   6   8
HETATM    8  C4  UNL     1     -32.147   8.186   1.837  1.00 20.00    -0.085 C 
HETATM    9  C3  UNL     1     -31.157   8.556   2.663  1.00 20.00     0.014 C 
HETATM   10  C10 UNL     1     -32.159   8.575   0.389  1.00 20.00     0.043 C 
ENDBRANCH   6   8
BRANCH   7  11
HETATM   11  O11 UNL     1     -35.874   4.728   4.445  1.00 20.00    -0.395 OA
HETATM   12  H27 UNL     1     -36.066   4.969   5.365  1.00 20.00     0.210 HD
ENDBRANCH   7  11
TORSDOF 2
