REMARK  0 active torsions:
REMARK  status: ('A' for Active; 'I' for Inactive)
ROOT
HETATM    1  C1  UNL     1     -31.943   8.208   2.767  1.00 20.00     0.177 A 
HETATM    2  C2  UNL     1     -32.766   8.459   1.555  1.00 20.00     0.218 A 
HETATM    3  O3  UNL     1     -31.408   6.103   1.331  1.00 20.00    -0.226 OA
HETATM    4  O4  UNL     1     -33.565   6.167   2.772  1.00 20.00    -0.226 OA
HETATM    5  S5  UNL     1     -32.598   6.723   1.859  1.00 20.00     0.165 S 
HETATM    6 CL6  UNL     1     -32.016   9.127   0.128  1.00 20.00    -0.107 Cl
ENDROOT
TORSDOF 0
