REMARK  4 active torsions:
REMARK  status: ('A' for Active; 'I' for Inactive)
REMARK    1  A    between atoms: C1_1  and  O8_8 
REMARK    2  A    between atoms: C5_5  and  C6_6 
REMARK    3  A    between atoms: C6_6  and  C7_7 
REMARK    4  A    between atoms: C7_7  and  O8_8 
ROOT
HETATM    1  C4  UNL     1     -31.775   5.271   1.078  1.00 20.00     0.040 C 
HETATM    2  C7  UNL     1     -32.175   6.318   2.109  1.00 20.00     0.125 C 
ENDROOT
BRANCH   2   3
HETATM    3  C6  UNL     1     -31.926   7.739   1.593  1.00 20.00     0.032 C 
BRANCH   3   4
HETATM    4  C5  UNL     1     -33.057   8.229   0.686  1.00 20.00    -0.002 C 
HETATM    5  C3  UNL     1     -32.815   9.655   0.216  1.00 20.00     0.005 C 
ENDBRANCH   3   4
ENDBRANCH   2   3
BRANCH   2   6
HETATM    6  O8  UNL     1     -33.555   6.147   2.423  1.00 20.00    -0.340 OA
BRANCH   6   7
HETATM    7  C1  UNL     1     -34.070   6.611   3.583  1.00 20.00     0.109 C 
HETATM    8  C2  UNL     1     -33.471   7.824   4.222  1.00 20.00     0.089 C 
HETATM    9  S9  UNL     1     -35.360   5.773   4.224  1.00 20.00    -0.058 SA
ENDBRANCH   6   7
ENDBRANCH   2   6
TORSDOF 4
