REMARK  1 active torsions:
REMARK  status: ('A' for Active; 'I' for Inactive)
REMARK    1  A    between atoms: C2_2  and  C6_6 
ROOT
HETATM    1  C3  UNL     1     -33.232   5.489   2.615  1.00 20.00     0.181 C 
HETATM    2  C4  UNL     1     -32.589   7.906   2.619  1.00 20.00     0.181 C 
HETATM    3  C5  UNL     1     -31.615   6.355   1.147  1.00 20.00     0.337 C 
HETATM    4  C6  UNL     1     -33.725   6.913   2.887  1.00 20.00     0.061 C 
HETATM    5  O8  UNL     1     -32.668   5.406   1.305  1.00 20.00    -0.366 OA
HETATM    6  O9  UNL     1     -32.057   7.701   1.309  1.00 20.00    -0.366 OA
ENDROOT
BRANCH   4   7
HETATM    7  C2  UNL     1     -34.268   7.056   4.272  1.00 20.00    -0.085 C 
HETATM    8  C1  UNL     1     -33.762   7.940   5.145  1.00 20.00     0.014 C 
HETATM    9  C7  UNL     1     -35.412   6.154   4.630  1.00 20.00     0.043 C 
ENDBRANCH   4   7
TORSDOF 1
