REMARK  0 active torsions:
REMARK  status: ('A' for Active; 'I' for Inactive)
ROOT
HETATM    1  C1  UNL     1     -32.992   5.646   1.548  1.00 20.00     0.023 C 
HETATM    2  C2  UNL     1     -35.212   4.917   4.332  1.00 20.00     0.017 A 
HETATM    3  C3  UNL     1     -34.627   7.369   4.222  1.00 20.00     0.012 C 
HETATM    4  C4  UNL     1     -31.894   6.593   1.253  1.00 20.00     0.110 C 
HETATM    5  C5  UNL     1     -34.898   5.392   3.146  1.00 20.00     0.010 A 
HETATM    6  C6  UNL     1     -35.463   6.312   4.208  1.00 20.00    -0.008 A 
HETATM    7  C7  UNL     1     -33.648   5.943   2.669  1.00 20.00    -0.061 C 
HETATM    8  C8  UNL     1     -32.842   8.261   2.605  1.00 20.00     0.158 C 
HETATM    9  C9  UNL     1     -33.325   7.134   3.517  1.00 20.00     0.040 C 
HETATM   10  N10 UNL     1     -31.763   7.793   1.709  1.00 20.00    -0.301 NA
ENDROOT
TORSDOF 0
