REMARK  0 active torsions:
REMARK  status: ('A' for Active; 'I' for Inactive)
ROOT
HETATM    1  C1  UNL     1     -34.437   7.137   1.005  1.00 20.00     0.175 C 
HETATM    2  C2  UNL     1     -32.856   5.155   2.172  1.00 20.00     0.175 C 
HETATM    3  C3  UNL     1     -34.660   6.600   3.735  1.00 20.00     0.175 C 
HETATM    4  C4  UNL     1     -32.368   7.844   2.740  1.00 20.00     0.175 C 
HETATM    5  S5  UNL     1     -33.725   5.515   0.622  1.00 20.00    -0.117 SA
HETATM    6  S6  UNL     1     -35.684   7.086   2.320  1.00 20.00    -0.117 SA
HETATM    7  S7  UNL     1     -33.966   4.932   3.587  1.00 20.00    -0.117 SA
HETATM    8  S8  UNL     1     -33.193   8.436   1.239  1.00 20.00    -0.117 SA
HETATM    9  S9  UNL     1     -31.476   6.282   2.506  1.00 20.00    -0.117 SA
HETATM   10  S10 UNL     1     -33.436   7.853   4.204  1.00 20.00    -0.117 SA
ENDROOT
TORSDOF 0
