REMARK  0 active torsions:
REMARK  status: ('A' for Active; 'I' for Inactive)
ROOT
HETATM    1  C1  UNL     1     -31.374   7.079   1.619  1.00 20.00     0.062 A 
HETATM    2  C2  UNL     1     -32.858   6.858   1.633  1.00 20.00     0.119 A 
HETATM    3  C3  UNL     1     -32.305   8.234   1.895  1.00 20.00     0.112 A 
HETATM    4 CL4  UNL     1     -33.561   5.880   2.895  1.00 20.00    -0.122 Cl
HETATM    5 CL5  UNL     1     -32.304   8.908   3.523  1.00 20.00    -0.105 Cl
HETATM    6 BR6  UNL     1     -32.522   9.546   0.512  1.00 20.00    -0.066 Br
ENDROOT
TORSDOF 0
