REMARK  2 active torsions:
REMARK  status: ('A' for Active; 'I' for Inactive)
REMARK    1  A    between atoms: C5_5  and  C6_6 
REMARK    2  A    between atoms: C5_5  and  O8_8 
ROOT
HETATM    1  C1  UNL     1     -34.591   6.674   3.883  1.00 20.00     0.228 C 
HETATM    2  N7  UNL     1     -35.363   5.931   4.328  1.00 20.00    -0.164 NA
HETATM    3  O8  UNL     1     -33.707   7.534   3.380  1.00 20.00    -0.283 OA
ENDROOT
BRANCH   3   4
HETATM    4  C5  UNL     1     -33.094   6.993   2.217  1.00 20.00     0.198 C 
BRANCH   4   5
HETATM    5  C6  UNL     1     -32.097   7.995   1.600  1.00 20.00    -0.029 C 
HETATM    6  C2  UNL     1     -31.445   7.392   0.344  1.00 20.00     0.016 C 
HETATM    7  C3  UNL     1     -31.004   8.313   2.633  1.00 20.00     0.016 C 
HETATM    8  C4  UNL     1     -32.820   9.295   1.211  1.00 20.00     0.016 C 
ENDBRANCH   4   5
ENDBRANCH   3   4
TORSDOF 2
