REMARK  3 active torsions:
REMARK  status: ('A' for Active; 'I' for Inactive)
REMARK    1  A    between atoms: C1_1  and  C3_3 
REMARK    2  A    between atoms: C2_2  and  C4_4 
REMARK    3  A    between atoms: C5_5  and  C6_6 
ROOT
HETATM    1  C3  UNL     1     -33.559   6.854   3.183  1.00 20.00     0.010 C 
HETATM    2  C5  UNL     1     -32.643   6.981   2.207  1.00 20.00    -0.017 C 
HETATM    3  C7  UNL     1     -31.921   5.890   1.479  1.00 20.00     0.052 C 
ENDROOT
BRANCH   1   4
HETATM    4  C1  UNL     1     -34.010   5.609   3.771  1.00 20.00     0.004 C 
HETATM    5  C2  UNL     1     -33.175   4.597   4.040  1.00 20.00     0.041 C 
BRANCH   5   6
HETATM    6  C4  UNL     1     -33.716   3.359   4.635  1.00 20.00     0.258 C 
HETATM    7  O9  UNL     1     -33.000   2.402   4.903  1.00 20.00    -0.302 OA
ENDBRANCH   5   6
ENDBRANCH   1   4
BRANCH   2   8
HETATM    8  C6  UNL     1     -32.350   8.384   1.778  1.00 20.00     0.151 C 
HETATM    9  C8  UNL     1     -31.245   9.112   2.499  1.00 20.00     0.096 C 
HETATM   10  O10 UNL     1     -32.975   8.915   0.862  1.00 20.00    -0.293 OA
ENDBRANCH   2   8
TORSDOF 3
