REMARK  1 active torsions:
REMARK  status: ('A' for Active; 'I' for Inactive)
REMARK    1  A    between atoms: C1_1  and  C8_8 
ROOT
HETATM    1  C1  UNL     1     -32.672   7.742   1.955  1.00 20.00     0.069 C 
HETATM    2  C2  UNL     1     -33.344   7.187   4.045  1.00 20.00     0.169 C 
HETATM    3  C3  UNL     1     -34.082   6.102   3.248  1.00 20.00     0.025 C 
HETATM    4  C4  UNL     1     -35.540   6.488   2.979  1.00 20.00     0.029 C 
HETATM    5  C5  UNL     1     -34.000   4.738   3.928  1.00 20.00     0.029 C 
HETATM    6  N9  UNL     1     -32.839   8.240   3.135  1.00 20.00    -0.285 NA
HETATM    7  S10 UNL     1     -33.161   6.092   1.678  1.00 20.00    -0.104 SA
ENDROOT
BRANCH   1   8
HETATM    8  C8  UNL     1     -32.129   8.519   0.805  1.00 20.00     0.036 C 
HETATM    9  C6  UNL     1     -33.040   9.701   0.476  1.00 20.00     0.016 C 
HETATM   10  C7  UNL     1     -30.705   8.999   1.090  1.00 20.00     0.016 C 
ENDBRANCH   1   8
TORSDOF 1
