REMARK  2 active torsions:
REMARK  status: ('A' for Active; 'I' for Inactive)
REMARK    1  A    between atoms: C2_2  and  C5_5 
REMARK    2  A    between atoms: C5_5  and  C6_6 
ROOT
HETATM    1  C5  UNL     1     -33.253   6.328   2.337  1.00 20.00     0.042 C 
ENDROOT
BRANCH   1   2
HETATM    2  C2  UNL     1     -33.294   7.374   1.257  1.00 20.00    -0.030 C 
HETATM    3  C1  UNL     1     -32.384   8.350   1.127  1.00 20.00    -0.035 C 
HETATM    4  C3  UNL     1     -32.428   9.390   0.057  1.00 20.00     0.036 C 
ENDBRANCH   1   2
BRANCH   1   5
HETATM    5  C6  UNL     1     -34.496   6.347   3.231  1.00 20.00     0.057 C 
HETATM    6  C4  UNL     1     -34.630   5.063   4.037  1.00 20.00     0.022 C 
HETATM    7 BR7  UNL     1     -34.386   7.846   4.495  1.00 20.00    -0.091 Br
ENDBRANCH   1   5
TORSDOF 2
