REMARK  1 active torsions:
REMARK  status: ('A' for Active; 'I' for Inactive)
REMARK    1  A    between atoms: C9_9  and  O10_10 
ROOT
HETATM    1  C1  UNL     1     -32.462   7.148   0.130  1.00 20.00     0.053 A 
HETATM    2  C2  UNL     1     -32.936   9.135   2.086  1.00 20.00     0.055 A 
HETATM    3  C3  UNL     1     -32.817   6.806   1.424  1.00 20.00    -0.046 A 
HETATM    4  C4  UNL     1     -33.053   7.789   2.394  1.00 20.00    -0.020 A 
HETATM    5  C5  UNL     1     -32.356   8.502  -0.191  1.00 20.00     0.155 A 
HETATM    6  C6  UNL     1     -32.591   9.489   0.780  1.00 20.00     0.155 A 
HETATM    7  C7  UNL     1     -32.957   5.434   2.007  1.00 20.00     0.042 C 
HETATM    8  C8  UNL     1     -33.760   5.737   3.280  1.00 20.00     0.041 C 
HETATM    9  C9  UNL     1     -33.367   7.157   3.717  1.00 20.00     0.152 C 
HETATM   10  F11 UNL     1     -32.018   8.866  -1.436  1.00 20.00    -0.203 F 
HETATM   11  F12 UNL     1     -32.474  10.783   0.451  1.00 20.00    -0.203 F 
ENDROOT
BRANCH   9  12
HETATM   12  O10 UNL     1     -34.441   7.802   4.372  1.00 20.00    -0.391 OA
HETATM   13  H20 UNL     1     -34.583   7.338   5.215  1.00 20.00     0.210 HD
ENDBRANCH   9  12
TORSDOF 1
