REMARK  0 active torsions:
REMARK  status: ('A' for Active; 'I' for Inactive)
ROOT
HETATM    1  C1  UNL     1     -32.761   7.358   2.193  1.00 20.00     0.141 C 
HETATM    2  C2  UNL     1     -32.900   8.733   2.817  1.00 20.00     0.079 C 
HETATM    3  C3  UNL     1     -33.057   8.620   4.326  1.00 20.00     0.008 C 
HETATM    4  C4  UNL     1     -34.264   7.771   4.740  1.00 20.00     0.017 C 
HETATM    5  C5  UNL     1     -33.578   3.887   4.283  1.00 20.00     0.085 C 
HETATM    6  C6  UNL     1     -34.667   4.450   5.181  1.00 20.00     0.084 C 
HETATM    7  C7  UNL     1     -33.575   6.222   2.798  1.00 20.00     0.130 C 
HETATM    8  C8  UNL     1     -34.720   6.798   3.639  1.00 20.00     0.068 C 
HETATM    9  O9  UNL     1     -32.032   7.178   1.217  1.00 20.00    -0.297 OA
HETATM   10  S10 UNL     1     -32.413   5.158   3.717  1.00 20.00    -0.155 SA
HETATM   11  S11 UNL     1     -35.848   5.513   4.295  1.00 20.00    -0.162 SA
ENDROOT
TORSDOF 0
