REMARK  4 active torsions:
REMARK  status: ('A' for Active; 'I' for Inactive)
REMARK    1  A    between atoms: C3_3  and  C5_5 
REMARK    2  A    between atoms: C5_5  and  N8_8 
REMARK    3  A    between atoms: C6_6  and  C7_7 
REMARK    4  A    between atoms: C6_6  and  N8_8 
ROOT
HETATM    1  N8  UNL     1     -33.176   7.308   2.626  1.00 20.00     0.089 N 
HETATM    2  H23 UNL     1     -33.990   7.859   2.331  1.00 20.00     0.316 HD
ENDROOT
BRANCH   1   3
HETATM    3  C5  UNL     1     -32.193   7.274   1.578  1.00 20.00     0.274 C 
BRANCH   3   4
HETATM    4  C3  UNL     1     -31.726   8.645   1.231  1.00 20.00     0.018 A 
HETATM    5  C1  UNL     1     -31.056   8.905  -0.092  1.00 20.00     0.011 A 
HETATM    6  C2  UNL     1     -32.439   9.440   0.169  1.00 20.00    -0.013 A 
HETATM    7  C4  UNL     1     -32.654  10.903   0.348  1.00 20.00     0.010 C 
ENDBRANCH   3   4
ENDBRANCH   1   3
BRANCH   1   8
HETATM    8  C6  UNL     1     -33.633   5.965   2.983  1.00 20.00     0.340 C 
BRANCH   8   9
HETATM    9  C7  UNL     1     -34.677   6.031   4.078  1.00 20.00     0.381 C 
HETATM   10  F9  UNL     1     -35.130   4.785   4.362  1.00 20.00    -0.213 F 
HETATM   11  F10 UNL     1     -35.747   6.737   3.629  1.00 20.00    -0.213 F 
ENDBRANCH   8   9
ENDBRANCH   1   8
TORSDOF 4
