REMARK  1 active torsions:
REMARK  status: ('A' for Active; 'I' for Inactive)
REMARK    1  A    between atoms: C4_4  and  C8_8 
ROOT
HETATM    1  C1  UNL     1     -33.654   4.078   4.208  1.00 20.00     0.137 C 
HETATM    2  C2  UNL     1     -32.722   5.051   3.532  1.00 20.00     0.095 C 
HETATM    3  C3  UNL     1     -34.993   4.645   4.601  1.00 20.00     0.152 C 
HETATM    4  C4  UNL     1     -33.599   6.095   2.854  1.00 20.00     0.062 C 
HETATM    5  O9  UNL     1     -33.328   2.923   4.468  1.00 20.00    -0.297 OA
HETATM    6  S10 UNL     1     -34.973   6.353   4.010  1.00 20.00    -0.156 SA
ENDROOT
BRANCH   4   7
HETATM    7  C8  UNL     1     -32.858   7.391   2.574  1.00 20.00    -0.038 C 
HETATM    8  C5  UNL     1     -33.822   8.405   1.940  1.00 20.00     0.015 C 
HETATM    9  C6  UNL     1     -31.695   7.118   1.609  1.00 20.00     0.015 C 
HETATM   10  C7  UNL     1     -32.308   7.961   3.890  1.00 20.00     0.015 C 
ENDBRANCH   4   7
TORSDOF 1
