REMARK  2 active torsions:
REMARK  status: ('A' for Active; 'I' for Inactive)
REMARK    1  A    between atoms: C5_5  and  C7_7 
REMARK    2  A    between atoms: C6_6  and  C7_7 
ROOT
HETATM    1  C1  UNL     1     -32.620   7.780   3.374  1.00 20.00     0.033 C 
HETATM    2  C2  UNL     1     -34.000   7.561   3.962  1.00 20.00     0.168 C 
HETATM    3  C3  UNL     1     -33.688   6.030   2.232  1.00 20.00     0.172 C 
HETATM    4  C5  UNL     1     -32.746   7.196   1.982  1.00 20.00     0.014 C 
HETATM    5  O8  UNL     1     -34.562   6.418   3.303  1.00 20.00    -0.391 OA
ENDROOT
BRANCH   4   6
HETATM    6  C7  UNL     1     -33.335   8.200   0.992  1.00 20.00     0.041 C 
BRANCH   6   7
HETATM    7  C6  UNL     1     -32.318   9.196   0.528  1.00 20.00     0.145 A 
HETATM    8  C4  UNL     1     -32.691  10.631   0.281  1.00 20.00     0.200 A 
HETATM    9  O9  UNL     1     -32.534   9.694  -0.797  1.00 20.00    -0.381 OA
ENDBRANCH   6   7
ENDBRANCH   4   6
TORSDOF 2
