REMARK  1 active torsions:
REMARK  status: ('A' for Active; 'I' for Inactive)
REMARK    1  A    between atoms: C2_2  and  C4_4 
ROOT
HETATM    1  C1  UNL     1     -32.655   5.541   3.588  1.00 20.00     0.092 A 
HETATM    2  C2  UNL     1     -33.279   5.878   2.251  1.00 20.00     0.092 A 
HETATM    3  C3  UNL     1     -33.887   6.371   3.516  1.00 20.00     0.250 A 
HETATM    4  F5  UNL     1     -35.090   5.869   3.956  1.00 20.00    -0.206 F 
HETATM    5  F6  UNL     1     -33.849   7.705   3.853  1.00 20.00    -0.206 F 
ENDROOT
BRANCH   2   6
HETATM    6  C4  UNL     1     -32.600   6.824   1.324  1.00 20.00     0.232 C 
HETATM    7  F7  UNL     1     -32.081   7.869   2.034  1.00 20.00    -0.255 F 
ENDBRANCH   2   6
TORSDOF 1
