REMARK  1 active torsions:
REMARK  status: ('A' for Active; 'I' for Inactive)
REMARK    1  A    between atoms: C2_2  and  C6_6 
ROOT
HETATM    1  C1  UNL     1     -33.492   8.037   3.460  1.00 20.00     0.011 C 
HETATM    2  C2  UNL     1     -32.861   7.244   2.579  1.00 20.00     0.026 C 
HETATM    3  C3  UNL     1     -34.574   7.526   4.365  1.00 20.00     0.195 C 
HETATM    4  C4  UNL     1     -33.204   5.780   2.497  1.00 20.00     0.069 C 
HETATM    5  C5  UNL     1     -33.999   5.322   3.717  1.00 20.00     0.172 C 
HETATM    6  O7  UNL     1     -35.062   6.240   3.969  1.00 20.00    -0.387 OA
ENDROOT
BRANCH   2   7
HETATM    7  C6  UNL     1     -31.807   7.749   1.643  1.00 20.00     0.413 C 
HETATM    8  F8  UNL     1     -31.336   6.754   0.864  1.00 20.00    -0.166 F 
HETATM    9  F9  UNL     1     -32.297   8.711   0.835  1.00 20.00    -0.166 F 
HETATM   10  F10 UNL     1     -30.764   8.271   2.321  1.00 20.00    -0.166 F 
ENDBRANCH   2   7
TORSDOF 1
