REMARK  1 active torsions:
REMARK  status: ('A' for Active; 'I' for Inactive)
REMARK    1  A    between atoms: C2_2  and  C6_6 
ROOT
HETATM    1  C1  UNL     1     -33.591   7.484   4.300  1.00 20.00     0.139 C 
HETATM    2  C4  UNL     1     -33.003   7.755   2.909  1.00 20.00     0.081 C 
HETATM    3  C5  UNL     1     -33.576   6.393   2.460  1.00 20.00     0.028 C 
HETATM    4  C6  UNL     1     -34.321   6.201   3.820  1.00 20.00     0.035 C 
HETATM    5  C8  UNL     1     -35.836   6.337   3.753  1.00 20.00     0.027 C 
HETATM    6  O9  UNL     1     -33.515   8.067   5.362  1.00 20.00    -0.297 OA
ENDROOT
BRANCH   4   7
HETATM    7  C2  UNL     1     -33.871   5.022   4.598  1.00 20.00    -0.014 C 
HETATM    8  C3  UNL     1     -33.834   3.774   4.108  1.00 20.00    -0.034 C 
HETATM    9  C7  UNL     1     -33.380   2.587   4.891  1.00 20.00     0.036 C 
ENDBRANCH   4   7
TORSDOF 1
