REMARK  0 active torsions:
REMARK  status: ('A' for Active; 'I' for Inactive)
ROOT
HETATM    1  C1  UNL     1     -33.195   6.066   2.330  1.00 20.00     0.221 C 
HETATM    2  C2  UNL     1     -33.050   7.741   4.327  1.00 20.00     0.020 C 
HETATM    3  C3  UNL     1     -34.658   8.117   3.014  1.00 20.00     0.020 C 
HETATM    4  C4  UNL     1     -34.808   5.840   4.239  1.00 20.00     0.127 C 
HETATM    5  C5  UNL     1     -33.214   7.564   2.782  1.00 20.00     0.078 C 
HETATM    6  C6  UNL     1     -34.557   7.345   4.364  1.00 20.00     0.005 C 
HETATM    7  N7  UNL     1     -34.029   5.292   3.129  1.00 20.00    -0.360 N 
HETATM    8  O8  UNL     1     -32.540   5.603   1.396  1.00 20.00    -0.273 OA
HETATM    9  H17 UNL     1     -34.101   4.299   2.932  1.00 20.00     0.162 HD
ENDROOT
TORSDOF 0
