REMARK  0 active torsions:
REMARK  status: ('A' for Active; 'I' for Inactive)
ROOT
HETATM    1  C1  UNL     1     -35.211   5.280   4.241  1.00 20.00     0.102 C 
HETATM    2  C2  UNL     1     -33.776   5.260   2.263  1.00 20.00     0.050 A 
HETATM    3  C3  UNL     1     -32.305   7.119   1.798  1.00 20.00     0.069 A 
HETATM    4  C4  UNL     1     -34.227   5.905   3.415  1.00 20.00     0.087 A 
HETATM    5  C5  UNL     1     -32.755   7.764   2.949  1.00 20.00     0.158 A 
HETATM    6  C6  UNL     1     -33.716   7.157   3.758  1.00 20.00     0.175 A 
HETATM    7  C7  UNL     1     -32.815   5.867   1.454  1.00 20.00     0.038 A 
HETATM    8  N8  UNL     1     -36.010   4.773   4.912  1.00 20.00    -0.191 NA
HETATM    9  F9  UNL     1     -32.264   8.966   3.279  1.00 20.00    -0.203 F 
HETATM   10  F10 UNL     1     -34.138   7.789   4.863  1.00 20.00    -0.201 F 
HETATM   11 CL11 UNL     1     -32.261   5.072   0.032  1.00 20.00    -0.084 Cl
ENDROOT
TORSDOF 0
