REMARK  5 active torsions:
REMARK  status: ('A' for Active; 'I' for Inactive)
REMARK    1  A    between atoms: C3_3  and  C7_7 
REMARK    2  A    between atoms: C4_4  and  C8_8 
REMARK    3  A    between atoms: C7_7  and  C9_9 
REMARK    4  A    between atoms: C8_8  and  C10_10 
REMARK    5  A    between atoms: C9_9  and  C10_10 
ROOT
HETATM    1  C9  UNL     1     -31.841   5.975   1.553  1.00 20.00     0.004 C 
ENDROOT
BRANCH   1   2
HETATM    2  C7  UNL     1     -31.221   7.369   1.442  1.00 20.00     0.026 C 
BRANCH   2   3
HETATM    3  C3  UNL     1     -31.918   8.194   0.400  1.00 20.00    -0.031 C 
HETATM    4  C1  UNL     1     -32.520   9.365   0.655  1.00 20.00    -0.035 C 
HETATM    5  C5  UNL     1     -33.219  10.182  -0.381  1.00 20.00     0.035 C 
ENDBRANCH   2   3
ENDBRANCH   1   2
BRANCH   1   6
HETATM    6  C10 UNL     1     -33.328   6.056   1.907  1.00 20.00     0.004 C 
BRANCH   6   7
HETATM    7  C8  UNL     1     -33.540   6.732   3.263  1.00 20.00     0.026 C 
BRANCH   7   8
HETATM    8  C4  UNL     1     -34.996   6.781   3.625  1.00 20.00    -0.031 C 
HETATM    9  C2  UNL     1     -35.617   5.838   4.349  1.00 20.00    -0.035 C 
HETATM   10  C6  UNL     1     -34.939   4.621   4.885  1.00 20.00     0.035 C 
ENDBRANCH   7   8
ENDBRANCH   6   7
ENDBRANCH   1   6
TORSDOF 5
