REMARK  1 active torsions:
REMARK  status: ('A' for Active; 'I' for Inactive)
REMARK    1  A    between atoms: C5_5  and  C6_6 
ROOT
HETATM    1  C1  UNL     1     -33.381   7.801   3.802  1.00 20.00     0.078 C 
HETATM    2  C2  UNL     1     -34.408   7.205   4.413  1.00 20.00    -0.018 C 
HETATM    3  C3  UNL     1     -32.828   7.250   2.552  1.00 20.00     0.283 C 
HETATM    4  C4  UNL     1     -34.995   5.933   3.905  1.00 20.00     0.061 C 
HETATM    5  C5  UNL     1     -33.965   5.154   3.096  1.00 20.00     0.149 C 
HETATM    6  O7  UNL     1     -32.028   7.896   1.883  1.00 20.00    -0.260 OA
HETATM    7  O8  UNL     1     -33.271   6.023   2.170  1.00 20.00    -0.311 OA
ENDROOT
BRANCH   5   8
HETATM    8  C6  UNL     1     -32.939   4.419   3.957  1.00 20.00     0.147 C 
HETATM    9 CL9  UNL     1     -33.630   2.910   4.582  1.00 20.00    -0.128 Cl
ENDBRANCH   5   8
TORSDOF 1
