REMARK  0 active torsions:
REMARK  status: ('A' for Active; 'I' for Inactive)
ROOT
HETATM    1  C1  UNL     1     -34.397   5.570   2.978  1.00 20.00     0.088 C 
HETATM    2  C2  UNL     1     -31.414   7.280   1.426  1.00 20.00     0.001 C 
HETATM    3  C3  UNL     1     -32.158   5.921   1.520  1.00 20.00     0.010 C 
HETATM    4  C4  UNL     1     -32.232   8.290   2.273  1.00 20.00     0.007 C 
HETATM    5  C5  UNL     1     -34.389   7.650   3.763  1.00 20.00     0.153 C 
HETATM    6  C6  UNL     1     -33.494   6.333   2.074  1.00 20.00     0.031 C 
HETATM    7  C7  UNL     1     -33.066   7.357   3.107  1.00 20.00     0.014 C 
HETATM    8  N8  UNL     1     -34.978   6.278   3.905  1.00 20.00    -0.305 NA
ENDROOT
TORSDOF 0
