REMARK  1 active torsions:
REMARK  status: ('A' for Active; 'I' for Inactive)
REMARK    1  A    between atoms: N9_9  and  O10_10 
ROOT
HETATM    1  C1  UNL     1     -34.307   5.753   3.960  1.00 20.00     0.044 C 
HETATM    2  C2  UNL     1     -35.041   7.020   4.363  1.00 20.00     0.058 C 
HETATM    3  C3  UNL     1     -34.576   8.017   3.278  1.00 20.00     0.011 C 
HETATM    4  C4  UNL     1     -31.545   6.535   1.502  1.00 20.00     0.001 C 
HETATM    5  C5  UNL     1     -32.139   5.431   2.413  1.00 20.00     0.011 C 
HETATM    6  C6  UNL     1     -32.472   7.768   1.634  1.00 20.00     0.005 C 
HETATM    7  C7  UNL     1     -33.517   5.958   2.710  1.00 20.00     0.040 C 
HETATM    8  C8  UNL     1     -33.225   7.447   2.901  1.00 20.00    -0.004 C 
HETATM    9  N9  UNL     1     -34.396   4.644   4.609  1.00 20.00    -0.145 NA
ENDROOT
BRANCH   9  10
HETATM   10  O10 UNL     1     -33.598   3.693   3.969  1.00 20.00    -0.266 OA
HETATM   11  H23 UNL     1     -33.737   2.911   4.530  1.00 20.00     0.247 HD
ENDBRANCH   9  10
TORSDOF 1
