REMARK  2 active torsions:
REMARK  status: ('A' for Active; 'I' for Inactive)
REMARK    1  A    between atoms: C1_1  and  C3_3 
REMARK    2  A    between atoms: C2_2  and  C4_4 
ROOT
HETATM    1  C4  UNL     1     -32.565   7.455   2.834  1.00 20.00     0.097 C 
HETATM    2  C5  UNL     1     -33.845   7.830   3.629  1.00 20.00     0.074 C 
HETATM    3  C6  UNL     1     -33.409   6.352   2.141  1.00 20.00     0.315 C 
HETATM    4  C7  UNL     1     -34.331   6.374   3.391  1.00 20.00     0.312 C 
HETATM    5  C8  UNL     1     -33.644   8.244   5.074  1.00 20.00     0.017 C 
HETATM    6  F10 UNL     1     -34.016   6.701   0.982  1.00 20.00    -0.199 F 
HETATM    7  F11 UNL     1     -32.769   5.184   1.910  1.00 20.00    -0.199 F 
HETATM    8  F12 UNL     1     -35.652   6.231   3.146  1.00 20.00    -0.199 F 
HETATM    9  F13 UNL     1     -34.011   5.477   4.353  1.00 20.00    -0.199 F 
ENDROOT
BRANCH   1  10
HETATM   10  C2  UNL     1     -32.034   8.505   1.945  1.00 20.00    -0.012 C 
HETATM   11  C1  UNL     1     -32.791   9.187   1.078  1.00 20.00     0.038 C 
BRANCH  11  12
HETATM   12  C3  UNL     1     -32.163  10.220   0.232  1.00 20.00     0.258 C 
HETATM   13  O9  UNL     1     -32.808  10.874  -0.579  1.00 20.00    -0.302 OA
ENDBRANCH  11  12
ENDBRANCH   1  10
TORSDOF 2
