REMARK  1 active torsions:
REMARK  status: ('A' for Active; 'I' for Inactive)
REMARK    1  A    between atoms: C7_7  and  C8_8 
ROOT
HETATM    1  C4  UNL     1     -33.829   4.605   3.416  1.00 20.00     0.038 C 
HETATM    2  C5  UNL     1     -34.744   4.530   4.632  1.00 20.00     0.270 C 
HETATM    3  C6  UNL     1     -35.876   6.419   3.535  1.00 20.00     0.307 C 
HETATM    4  C8  UNL     1     -33.390   6.051   3.139  1.00 20.00     0.027 C 
HETATM    5  C9  UNL     1     -34.491   7.057   3.498  1.00 20.00     0.202 C 
HETATM    6  N10 UNL     1     -35.971   5.313   4.490  1.00 20.00     0.086 N 
HETATM    7  F11 UNL     1     -34.225   7.555   4.743  1.00 20.00    -0.247 F 
HETATM    8  H27 UNL     1     -36.732   4.683   4.188  1.00 20.00     0.315 HD
ENDROOT
BRANCH   4   9
HETATM    9  C7  UNL     1     -32.996   6.192   1.668  1.00 20.00    -0.008 C 
HETATM   10  C2  UNL     1     -31.861   5.259   1.177  1.00 20.00     0.005 C 
HETATM   11  C1  UNL     1     -30.872   6.412   1.437  1.00 20.00     0.001 C 
HETATM   12  C3  UNL     1     -32.065   7.381   1.325  1.00 20.00     0.005 C 
ENDBRANCH   4   9
TORSDOF 1
