REMARK  2 active torsions:
REMARK  status: ('A' for Active; 'I' for Inactive)
REMARK    1  A    between atoms: C4_4  and  C8_8 
REMARK    2  A    between atoms: C5_5  and  C9_9 
ROOT
HETATM    1  C1  UNL     1     -32.785   7.207   2.299  1.00 20.00     0.139 C 
HETATM    2  C6  UNL     1     -33.607   7.677   3.476  1.00 20.00     0.080 C 
HETATM    3  C7  UNL     1     -34.283   6.392   3.940  1.00 20.00     0.017 C 
HETATM    4  C8  UNL     1     -33.268   5.297   3.595  1.00 20.00     0.027 C 
HETATM    5  C9  UNL     1     -32.754   5.686   2.184  1.00 20.00     0.041 C 
HETATM    6  C10 UNL     1     -31.342   5.170   1.920  1.00 20.00     0.028 C 
HETATM    7  O11 UNL     1     -32.217   7.976   1.531  1.00 20.00    -0.297 OA
ENDROOT
BRANCH   5   8
HETATM    8  C5  UNL     1     -33.669   5.337   1.043  1.00 20.00    -0.019 C 
HETATM    9  C3  UNL     1     -33.279   4.687  -0.058  1.00 20.00     0.008 C 
ENDBRANCH   5   8
BRANCH   4  10
HETATM   10  C4  UNL     1     -33.820   3.915   3.733  1.00 20.00    -0.031 C 
HETATM   11  C2  UNL     1     -33.347   3.002   4.588  1.00 20.00     0.007 C 
ENDBRANCH   4  10
TORSDOF 2
