REMARK  2 active torsions:
REMARK  status: ('A' for Active; 'I' for Inactive)
REMARK    1  A    between atoms: C1_1  and  C7_7 
REMARK    2  A    between atoms: C4_4  and  C7_7 
ROOT
HETATM    1  C2  UNL     1     -31.046   9.313   0.823  1.00 20.00     0.197 C 
HETATM    2  C3  UNL     1     -32.400   9.328   0.167  1.00 20.00     0.197 C 
HETATM    3  C4  UNL     1     -32.497   8.088   2.063  1.00 20.00     0.169 C 
HETATM    4  C5  UNL     1     -32.660   8.539   3.509  1.00 20.00     0.080 C 
HETATM    5  O9  UNL     1     -31.113   8.180   1.689  1.00 20.00    -0.353 OA
HETATM    6  O10 UNL     1     -33.283   8.949   1.222  1.00 20.00    -0.353 OA
ENDROOT
BRANCH   3   7
HETATM    7  C7  UNL     1     -32.956   6.647   1.877  1.00 20.00     0.105 C 
HETATM    8  C6  UNL     1     -31.816   5.769   1.375  1.00 20.00     0.023 C 
BRANCH   7   9
HETATM    9  C1  UNL     1     -33.525   6.135   3.186  1.00 20.00     0.240 C 
HETATM   10  O8  UNL     1     -34.694   6.261   3.536  1.00 20.00    -0.306 OA
ENDBRANCH   7   9
ENDBRANCH   3   7
TORSDOF 2
