REMARK  2 active torsions:
REMARK  status: ('A' for Active; 'I' for Inactive)
REMARK    1  A    between atoms: C2_2  and  C6_6 
REMARK    2  A    between atoms: C3_3  and  C6_6 
ROOT
HETATM    1  C1  UNL     1     -32.492   8.955   0.658  1.00 20.00    -0.110 C 
HETATM    2  C2  UNL     1     -32.459   7.969   1.343  1.00 20.00    -0.092 C 
HETATM    3  C4  UNL     1     -32.532  10.156  -0.176  1.00 20.00     0.112 C 
ENDROOT
BRANCH   2   4
HETATM    4  C6  UNL     1     -32.417   6.759   2.184  1.00 20.00     0.162 C 
HETATM    5  C5  UNL     1     -32.511   5.509   1.318  1.00 20.00     0.035 C 
BRANCH   4   6
HETATM    6  C3  UNL     1     -33.521   6.839   3.254  1.00 20.00     0.188 C 
HETATM    7  O7  UNL     1     -33.951   5.715   3.648  1.00 20.00    -0.647 OA
HETATM    8  O8  UNL     1     -33.872   7.996   3.616  1.00 20.00    -0.647 OA
ENDBRANCH   4   6
ENDBRANCH   2   4
TORSDOF 2
