REMARK  0 active torsions:
REMARK  status: ('A' for Active; 'I' for Inactive)
ROOT
HETATM    1  C1  UNL     1     -32.107   8.741   0.689  1.00 20.00     0.064 C 
HETATM    2  C2  UNL     1     -33.101   5.476   2.376  1.00 20.00     0.012 C 
HETATM    3  C3  UNL     1     -33.888   5.916   3.366  1.00 20.00     0.090 C 
HETATM    4  C4  UNL     1     -32.430   6.392   1.394  1.00 20.00     0.049 C 
HETATM    5  C5  UNL     1     -34.207   7.363   3.581  1.00 20.00     0.071 C 
HETATM    6  C6  UNL     1     -33.842   8.241   2.379  1.00 20.00     0.026 C 
HETATM    7  C7  UNL     1     -32.462   7.869   1.822  1.00 20.00     0.096 C 
HETATM    8  N8  UNL     1     -31.827   9.428  -0.203  1.00 20.00    -0.197 NA
HETATM    9  F9  UNL     1     -34.442   5.006   4.199  1.00 20.00    -0.211 F 
ENDROOT
TORSDOF 0
