REMARK  1 active torsions:
REMARK  status: ('A' for Active; 'I' for Inactive)
REMARK    1  A    between atoms: C2_2  and  O6_6 
ROOT
HETATM    1  C1  UNL     1     -34.670   7.787   2.299  1.00 20.00     0.106 A 
HETATM    2  C2  UNL     1     -33.252   7.306   2.145  1.00 20.00     0.111 A 
HETATM    3  C3  UNL     1     -33.983   7.095   3.447  1.00 20.00     0.212 A 
HETATM    4  C4  UNL     1     -32.138   8.296   2.062  1.00 20.00     0.051 C 
HETATM    5  F7  UNL     1     -33.611   7.915   4.507  1.00 20.00    -0.222 F 
HETATM    6 CL8  UNL     1     -34.528   5.489   3.897  1.00 20.00    -0.079 Cl
ENDROOT
BRANCH   2   7
HETATM    7  O6  UNL     1     -33.070   6.164   1.290  1.00 20.00    -0.381 OA
HETATM    8  C5  UNL     1     -31.838   5.523   1.559  1.00 20.00     0.202 C 
ENDBRANCH   2   7
TORSDOF 1
