REMARK  0 active torsions:
REMARK  status: ('A' for Active; 'I' for Inactive)
ROOT
HETATM    1  C1  UNL     1     -33.666   7.193   3.597  1.00 20.00     0.135 C 
HETATM    2  C2  UNL     1     -32.509   7.891   2.915  1.00 20.00     0.110 C 
HETATM    3  C3  UNL     1     -32.742   5.203   2.481  1.00 20.00     0.179 C 
HETATM    4  C4  UNL     1     -34.022   5.816   3.052  1.00 20.00     0.075 C 
HETATM    5  C5  UNL     1     -32.415   7.379   1.479  1.00 20.00     0.124 C 
HETATM    6  C6  UNL     1     -34.621   4.927   4.134  1.00 20.00     0.020 C 
HETATM    7  C7  UNL     1     -31.294   8.074   0.718  1.00 20.00     0.040 C 
HETATM    8  O8  UNL     1     -34.268   7.718   4.531  1.00 20.00    -0.297 OA
HETATM    9  O9  UNL     1     -32.170   5.970   1.418  1.00 20.00    -0.385 OA
ENDROOT
TORSDOF 0
