REMARK  2 active torsions:
REMARK  status: ('A' for Active; 'I' for Inactive)
REMARK    1  A    between atoms: C3_3  and  C4_4 
REMARK    2  A    between atoms: C4_4  and  S7_7 
ROOT
HETATM    1  C4  UNL     1     -33.868   8.375   1.969  1.00 20.00     0.162 C 
ENDROOT
BRANCH   1   2
HETATM    2  C3  UNL     1     -32.597   8.987   1.490  1.00 20.00     0.001 A 
HETATM    3  C1  UNL     1     -31.844   8.370   0.344  1.00 20.00     0.006 A 
HETATM    4  C2  UNL     1     -32.549   9.685   0.159  1.00 20.00     0.006 A 
ENDBRANCH   1   2
BRANCH   1   5
HETATM    5  S7  UNL     1     -33.582   6.971   3.013  1.00 20.00     0.230 S 
HETATM    6  O5  UNL     1     -32.814   7.400   4.163  1.00 20.00    -0.211 OA
HETATM    7  O6  UNL     1     -33.168   5.858   2.185  1.00 20.00    -0.211 OA
HETATM    8 CL8  UNL     1     -35.407   6.429   3.763  1.00 20.00     0.018 Cl
ENDBRANCH   1   5
TORSDOF 2
