REMARK  1 active torsions:
REMARK  status: ('A' for Active; 'I' for Inactive)
REMARK    1  A    between atoms: C1_1  and  C7_7 
ROOT
HETATM    1  C2  UNL     1     -32.157   5.531   1.308  1.00 20.00     0.007 C 
HETATM    2  C3  UNL     1     -33.484   5.285   2.027  1.00 20.00     0.020 C 
HETATM    3  C4  UNL     1     -33.235   7.313   3.500  1.00 20.00     0.026 C 
HETATM    4  C5  UNL     1     -31.433   6.787   1.693  1.00 20.00    -0.002 A 
HETATM    5  C6  UNL     1     -31.956   7.670   2.803  1.00 20.00    -0.000 A 
HETATM    6  C7  UNL     1     -33.502   5.806   3.465  1.00 20.00     0.045 C 
HETATM    7  C8  UNL     1     -31.894   8.199   1.372  1.00 20.00    -0.040 A 
HETATM    8  C9  UNL     1     -32.582   5.019   4.395  1.00 20.00     0.027 C 
HETATM    9  C10 UNL     1     -30.815   9.215   1.074  1.00 20.00     0.015 C 
HETATM   10  C11 UNL     1     -33.143   8.431   0.563  1.00 20.00     0.015 C 
ENDROOT
BRANCH   6  11
HETATM   11  C1  UNL     1     -34.929   5.603   3.965  1.00 20.00     0.181 C 
HETATM   12  O12 UNL     1     -35.714   6.570   3.762  1.00 20.00    -0.647 OA
HETATM   13  O13 UNL     1     -35.142   4.489   4.520  1.00 20.00    -0.647 OA
ENDBRANCH   6  11
TORSDOF 1
