REMARK  0 active torsions:
REMARK  status: ('A' for Active; 'I' for Inactive)
ROOT
HETATM    1  C1  UNL     1     -31.949   6.989   1.094  1.00 20.00     0.099 A 
HETATM    2  C2  UNL     1     -32.835   8.398   2.858  1.00 20.00     0.063 A 
HETATM    3  C3  UNL     1     -35.197   5.663   4.096  1.00 20.00     0.167 A 
HETATM    4  C4  UNL     1     -33.660   6.109   2.579  1.00 20.00     0.124 A 
HETATM    5  C5  UNL     1     -32.783   5.938   1.486  1.00 20.00     0.204 A 
HETATM    6  C6  UNL     1     -31.976   8.203   1.773  1.00 20.00     0.121 A 
HETATM    7  C7  UNL     1     -33.669   7.338   3.245  1.00 20.00     0.042 A 
HETATM    8  N8  UNL     1     -34.540   5.160   3.078  1.00 20.00    -0.249 NA
HETATM    9  O9  UNL     1     -32.826   4.794   0.925  1.00 20.00    -0.286 OA
HETATM   10  F10 UNL     1     -31.169   9.199   1.382  1.00 20.00    -0.206 F 
HETATM   11  S11 UNL     1     -34.821   7.275   4.527  1.00 20.00    -0.080 SA
ENDROOT
TORSDOF 0
