REMARK  1 active torsions:
REMARK  status: ('A' for Active; 'I' for Inactive)
REMARK    1  A    between atoms: C1_1  and  C3_3 
ROOT
HETATM    1  C1  UNL     1     -33.822   7.596   2.366  1.00 20.00     0.181 A 
HETATM    2  C2  UNL     1     -32.482   8.164   1.998  1.00 20.00     0.247 A 
HETATM    3  O4  UNL     1     -32.798   6.784   1.778  1.00 20.00    -0.358 OA
HETATM    4 CL5  UNL     1     -32.336   9.225   0.625  1.00 20.00    -0.092 Cl
ENDROOT
BRANCH   1   5
HETATM    5  C3  UNL     1     -34.147   7.251   3.775  1.00 20.00     0.150 C 
HETATM    6 CL6  UNL     1     -35.518   6.109   3.865  1.00 20.00    -0.128 Cl
ENDBRANCH   1   5
TORSDOF 1
