REMARK  1 active torsions:
REMARK  status: ('A' for Active; 'I' for Inactive)
REMARK    1  A    between atoms: C1_1  and  C3_3 
ROOT
HETATM    1  C1  UNL     1     -34.126   7.255   2.463  1.00 20.00     0.064 C 
HETATM    2  C2  UNL     1     -34.784   6.426   3.283  1.00 20.00     0.184 C 
HETATM    3  F4  UNL     1     -36.082   6.659   3.580  1.00 20.00    -0.193 F 
HETATM    4 CL5  UNL     1     -34.008   5.051   3.974  1.00 20.00    -0.052 Cl
ENDROOT
BRANCH   1   5
HETATM    5  C3  UNL     1     -32.692   7.077   2.078  1.00 20.00     0.205 C 
HETATM    6 CL6  UNL     1     -32.477   5.507   1.271  1.00 20.00    -0.104 Cl
HETATM    7 CL7  UNL     1     -32.194   8.394   0.990  1.00 20.00    -0.104 Cl
ENDBRANCH   1   5
TORSDOF 1
