REMARK  0 active torsions:
REMARK  status: ('A' for Active; 'I' for Inactive)
ROOT
HETATM    1  C1  UNL     1     -32.139   9.430   0.326  1.00 20.00     0.012 C 
HETATM    2  C2  UNL     1     -32.390   8.704   1.248  1.00 20.00    -0.113 C 
HETATM    3  C3  UNL     1     -34.449   6.060   3.906  1.00 20.00     0.127 C 
HETATM    4  C4  UNL     1     -33.383   5.461   3.017  1.00 20.00     0.079 C 
HETATM    5  C5  UNL     1     -34.216   7.477   4.378  1.00 20.00     0.079 C 
HETATM    6  C6  UNL     1     -33.043   6.407   1.873  1.00 20.00     0.024 C 
HETATM    7  C7  UNL     1     -33.859   8.382   3.205  1.00 20.00     0.024 C 
HETATM    8  C8  UNL     1     -32.696   7.813   2.381  1.00 20.00     0.065 C 
HETATM    9  O9  UNL     1     -35.402   5.394   4.309  1.00 20.00    -0.298 OA
ENDROOT
TORSDOF 0
