REMARK  1 active torsions:
REMARK  status: ('A' for Active; 'I' for Inactive)
REMARK    1  A    between atoms: C4_4  and  S6_6 
ROOT
HETATM    1  C1  UNL     1     -34.754   7.543   2.414  1.00 20.00     0.030 C 
HETATM    2  C2  UNL     1     -34.790   5.598   4.004  1.00 20.00     0.030 C 
HETATM    3  C3  UNL     1     -33.581   7.712   4.632  1.00 20.00     0.030 C 
HETATM    4  C4  UNL     1     -33.964   6.777   3.480  1.00 20.00     0.042 C 
ENDROOT
BRANCH   4   5
HETATM    5  S6  UNL     1     -32.428   6.110   2.698  1.00 20.00     0.120 S 
HETATM    6  O5  UNL     1     -32.847   5.556   1.382  1.00 20.00    -0.240 OA
HETATM    7 CL7  UNL     1     -31.587   7.831   2.111  1.00 20.00    -0.010 Cl
ENDBRANCH   4   5
TORSDOF 1
