REMARK  2 active torsions:
REMARK  status: ('A' for Active; 'I' for Inactive)
REMARK    1  A    between atoms: C1_1  and  C5_5 
REMARK    2  A    between atoms: C4_4  and  C5_5 
ROOT
HETATM    1  C2  UNL     1     -32.770   7.834   4.366  1.00 20.00     0.032 C 
HETATM    2  C3  UNL     1     -34.682   8.081   2.774  1.00 20.00     0.032 C 
HETATM    3  C5  UNL     1     -33.331   7.396   3.009  1.00 20.00     0.100 C 
ENDROOT
BRANCH   3   4
HETATM    4  C1  UNL     1     -32.335   7.741   1.863  1.00 20.00     0.186 C 
HETATM    5  O6  UNL     1     -32.466   8.889   1.348  1.00 20.00    -0.647 OA
HETATM    6  O7  UNL     1     -31.488   6.845   1.582  1.00 20.00    -0.647 OA
ENDBRANCH   3   4
BRANCH   3   7
HETATM    7  C4  UNL     1     -33.503   5.875   2.979  1.00 20.00     0.371 C 
HETATM    8  F8  UNL     1     -34.344   5.469   3.963  1.00 20.00    -0.213 F 
HETATM    9  F9  UNL     1     -32.316   5.255   3.201  1.00 20.00    -0.213 F 
ENDBRANCH   3   7
TORSDOF 2
