REMARK  1 active torsions:
REMARK  status: ('A' for Active; 'I' for Inactive)
REMARK    1  A    between atoms: C5_5  and  C10_10 
ROOT
HETATM    1  C1  UNL     1     -34.311   7.637   3.998  1.00 20.00     0.027 A 
HETATM    2  C2  UNL     1     -33.204   5.737   3.025  1.00 20.00     0.027 A 
HETATM    3  C3  UNL     1     -35.260   6.760   4.498  1.00 20.00     0.116 A 
HETATM    4  C4  UNL     1     -34.202   4.945   3.569  1.00 20.00     0.116 A 
HETATM    5  C5  UNL     1     -33.267   7.108   3.249  1.00 20.00    -0.051 A 
HETATM    6  N11 UNL     1     -35.233   5.423   4.302  1.00 20.00    -0.273 NA
ENDROOT
BRANCH   5   7
HETATM    7  C10 UNL     1     -32.137   8.076   2.643  1.00 20.00     0.026 C 
HETATM    8  C8  UNL     1     -31.541   7.747   1.237  1.00 20.00     0.043 C 
HETATM    9  C6  UNL     1     -32.369   8.910   0.754  1.00 20.00    -0.088 C 
HETATM   10  C7  UNL     1     -32.781   9.290  -0.456  1.00 20.00     0.014 C 
HETATM   11  C9  UNL     1     -32.558   9.491   2.132  1.00 20.00     0.043 C 
ENDBRANCH   5   7
TORSDOF 1
