REMARK  0 active torsions:
REMARK  status: ('A' for Active; 'I' for Inactive)
ROOT
HETATM    1  C1  UNL     1     -32.866  10.229   0.801  1.00 20.00    -0.024 C 
HETATM    2  C2  UNL     1     -32.632   9.640  -0.395  1.00 20.00    -0.024 C 
HETATM    3  C3  UNL     1     -33.273   7.530   3.326  1.00 20.00     0.272 C 
HETATM    4  C4  UNL     1     -33.382   6.160   1.493  1.00 20.00     0.272 C 
HETATM    5  C5  UNL     1     -31.922   9.304   1.531  1.00 20.00     0.031 C 
HETATM    6  C6  UNL     1     -32.045   8.387   0.241  1.00 20.00     0.031 C 
HETATM    7  C7  UNL     1     -32.324   8.059   2.271  1.00 20.00     0.108 C 
HETATM    8  C8  UNL     1     -33.099   7.575   0.997  1.00 20.00     0.108 C 
HETATM    9  O9  UNL     1     -33.606   8.004   4.401  1.00 20.00    -0.264 OA
HETATM   10  O10 UNL     1     -33.406   5.102   0.882  1.00 20.00    -0.264 OA
HETATM   11  O11 UNL     1     -33.696   6.280   2.856  1.00 20.00    -0.244 OA
ENDROOT
TORSDOF 0
