REMARK  1 active torsions:
REMARK  status: ('A' for Active; 'I' for Inactive)
REMARK    1  A    between atoms: N3_3  and  P4_4 
ROOT
HETATM    1  C1  UNL     1     -34.134   5.346   3.932  1.00 20.00     0.117 C 
HETATM    2  C2  UNL     1     -34.021   7.724   4.153  1.00 20.00     0.117 C 
HETATM    3  N3  UNL     1     -33.868   6.601   3.223  1.00 20.00    -0.274 NA
ENDROOT
BRANCH   3   4
HETATM    4  P4  UNL     1     -32.419   6.617   2.306  1.00 20.00     0.158 P 
HETATM    5 CL5  UNL     1     -32.451   5.117   0.833  1.00 20.00    -0.059 Cl
HETATM    6 CL6  UNL     1     -32.370   8.275   1.013  1.00 20.00    -0.059 Cl
ENDBRANCH   3   4
TORSDOF 1
