REMARK  1 active torsions:
REMARK  status: ('A' for Active; 'I' for Inactive)
REMARK    1  A    between atoms: C5_5  and  P6_6 
ROOT
HETATM    1  C1  UNL     1     -34.284   5.775   3.934  1.00 20.00     0.021 C 
HETATM    2  C2  UNL     1     -33.196   7.938   4.609  1.00 20.00     0.021 C 
HETATM    3  C3  UNL     1     -34.825   7.894   2.697  1.00 20.00     0.021 C 
HETATM    4  C5  UNL     1     -33.724   7.112   3.427  1.00 20.00    -0.015 C 
ENDROOT
BRANCH   4   5
HETATM    5  P6  UNL     1     -32.304   6.769   2.239  1.00 20.00    -0.013 P 
HETATM    6  C4  UNL     1     -33.234   5.801   0.998  1.00 20.00     0.062 C 
HETATM    7 CL7  UNL     1     -32.214   8.634   1.292  1.00 20.00    -0.096 Cl
ENDBRANCH   4   5
TORSDOF 1
