REMARK  0 active torsions:
REMARK  status: ('A' for Active; 'I' for Inactive)
ROOT
HETATM    1  C1  UNL     1     -34.109   6.038   6.096  1.00 20.00     0.019 A 
HETATM    2  C2  UNL     1     -34.279   4.637   5.974  1.00 20.00     0.019 A 
HETATM    3  C3  UNL     1     -33.997   6.552   4.823  1.00 20.00     0.090 A 
HETATM    4  C4  UNL     1     -34.265   4.337   4.630  1.00 20.00     0.090 A 
HETATM    5  C5  UNL     1     -34.021   5.624   2.501  1.00 20.00     0.154 C 
HETATM    6  N6  UNL     1     -34.093   5.508   3.940  1.00 20.00    -0.371 N 
ENDROOT
TORSDOF 0
