REMARK  0 active torsions:
REMARK  status: ('A' for Active; 'I' for Inactive)
ROOT
HETATM    1  C1  UNL     1     -34.157   4.885   3.648  1.00 20.00     0.035 A 
HETATM    2  C2  UNL     1     -33.584   5.622   2.584  1.00 20.00     0.035 A 
HETATM    3  C3  UNL     1     -34.286   5.767   4.697  1.00 20.00     0.049 A 
HETATM    4  C4  UNL     1     -33.403   6.900   3.058  1.00 20.00     0.049 A 
HETATM    5  C5  UNL     1     -34.803   5.632   6.066  1.00 20.00     0.076 C 
HETATM    6  C6  UNL     1     -32.861   8.127   2.458  1.00 20.00     0.076 C 
HETATM    7  O7  UNL     1     -33.829   6.997   4.345  1.00 20.00    -0.320 OA
ENDROOT
TORSDOF 0
