REMARK  1 active torsions:
REMARK  status: ('A' for Active; 'I' for Inactive)
REMARK    1  A    between atoms: C4_4  and  C7_7 
ROOT
HETATM    1  C1  UNL     1     -34.682   4.991   5.829  1.00 20.00     0.006 A 
HETATM    2  C2  UNL     1     -34.482   6.315   6.220  1.00 20.00     0.043 A 
HETATM    3  C3  UNL     1     -34.395   4.599   4.521  1.00 20.00     0.043 A 
HETATM    4  C4  UNL     1     -33.710   6.856   3.995  1.00 20.00     0.029 A 
HETATM    5  C5  UNL     1     -33.997   7.248   5.303  1.00 20.00     0.126 A 
HETATM    6  C6  UNL     1     -33.910   5.532   3.605  1.00 20.00     0.126 A 
HETATM    7  F8  UNL     1     -33.809   8.518   5.688  1.00 20.00    -0.205 F 
HETATM    8  F9  UNL     1     -33.637   5.146   2.350  1.00 20.00    -0.205 F 
ENDROOT
BRANCH   4   9
HETATM    9  C7  UNL     1     -33.191   7.853   3.015  1.00 20.00     0.130 C 
HETATM   10 BR10 UNL     1     -31.333   8.260   3.423  1.00 20.00    -0.091 Br
ENDBRANCH   4   9
TORSDOF 1
