REMARK  3 active torsions:
REMARK  status: ('A' for Active; 'I' for Inactive)
REMARK    1  A    between atoms: C4_4  and  S10_10 
REMARK    2  A    between atoms: C5_5  and  C7_7 
REMARK    3  A    between atoms: C7_7  and  S10_10 
ROOT
HETATM    1  C1  UNL     1     -32.424  10.537   0.762  1.00 20.00     0.009 A 
HETATM    2  C2  UNL     1     -32.124   9.764   1.920  1.00 20.00     0.026 A 
HETATM    3  C3  UNL     1     -32.872   9.755  -0.280  1.00 20.00     0.051 A 
HETATM    4  C4  UNL     1     -32.355   8.421   1.720  1.00 20.00     0.041 A 
HETATM    5  S9  UNL     1     -32.930   8.096   0.140  1.00 20.00    -0.095 SA
ENDROOT
BRANCH   4   6
HETATM    6  S10 UNL     1     -32.109   7.135   2.908  1.00 20.00    -0.115 SA
BRANCH   6   7
HETATM    7  C7  UNL     1     -33.789   6.478   3.017  1.00 20.00     0.157 C 
BRANCH   7   8
HETATM    8  C5  UNL     1     -33.876   5.330   3.994  1.00 20.00     0.132 C 
HETATM    9  C6  UNL     1     -34.196   5.727   5.398  1.00 20.00     0.091 C 
HETATM   10  O8  UNL     1     -33.711   4.148   3.724  1.00 20.00    -0.298 OA
ENDBRANCH   7   8
ENDBRANCH   6   7
ENDBRANCH   4   6
TORSDOF 3
