REMARK  0 active torsions:
REMARK  status: ('A' for Active; 'I' for Inactive)
ROOT
HETATM    1  C1  UNL     1     -34.371   5.252   5.963  1.00 20.00     0.001 A 
HETATM    2  C2  UNL     1     -34.692   4.478   4.845  1.00 20.00     0.003 A 
HETATM    3  C3  UNL     1     -33.681   6.464   5.829  1.00 20.00     0.014 A 
HETATM    4  C4  UNL     1     -34.336   4.884   3.555  1.00 20.00     0.038 A 
HETATM    5  C5  UNL     1     -32.633   8.014   3.999  1.00 20.00     0.046 A 
HETATM    6  C6  UNL     1     -33.313   6.892   4.541  1.00 20.00     0.000 A 
HETATM    7  C7  UNL     1     -33.651   6.093   3.453  1.00 20.00     0.086 A 
HETATM    8  C8  UNL     1     -32.602   7.828   2.636  1.00 20.00     0.050 A 
HETATM    9  C9  UNL     1     -32.050   8.620   1.528  1.00 20.00     0.077 C 
HETATM   10  O10 UNL     1     -33.216   6.665   2.295  1.00 20.00    -0.315 OA
ENDROOT
TORSDOF 0
