REMARK  3 active torsions:
REMARK  status: ('A' for Active; 'I' for Inactive)
REMARK    1  A    between atoms: C6_6  and  C9_9 
REMARK    2  A    between atoms: C8_8  and  C9_9 
REMARK    3  A    between atoms: C8_8  and  O10_10 
ROOT
HETATM    1  C1  UNL     1     -32.078  10.422   0.695  1.00 20.00     0.000 A 
HETATM    2  C2  UNL     1     -32.340  10.587   2.055  1.00 20.00     0.001 A 
HETATM    3  C3  UNL     1     -31.919   9.141   0.166  1.00 20.00     0.001 A 
HETATM    4  C4  UNL     1     -32.443   9.472   2.886  1.00 20.00     0.007 A 
HETATM    5  C5  UNL     1     -32.022   8.025   0.998  1.00 20.00     0.007 A 
HETATM    6  C6  UNL     1     -32.284   8.191   2.358  1.00 20.00    -0.052 A 
ENDROOT
BRANCH   6   7
HETATM    7  C9  UNL     1     -32.393   6.998   3.246  1.00 20.00     0.038 C 
HETATM    8  C7  UNL     1     -32.922   5.761   2.493  1.00 20.00     0.017 C 
BRANCH   7   9
HETATM    9  C8  UNL     1     -33.266   7.254   4.496  1.00 20.00     0.173 C 
BRANCH   9  10
HETATM   10  O10 UNL     1     -32.486   7.922   5.482  1.00 20.00    -0.400 OA
HETATM   11  H22 UNL     1     -33.066   8.064   6.247  1.00 20.00     0.209 HD
ENDBRANCH   9  10
ENDBRANCH   7   9
ENDBRANCH   6   7
TORSDOF 3
