REMARK  1 active torsions:
REMARK  status: ('A' for Active; 'I' for Inactive)
REMARK    1  A    between atoms: C6_6  and  C9_9 
ROOT
HETATM    1  C1  UNL     1     -34.513   5.532   3.082  1.00 20.00     0.001 A 
HETATM    2  C2  UNL     1     -34.743   5.785   4.435  1.00 20.00     0.007 A 
HETATM    3  C3  UNL     1     -33.662   6.363   2.353  1.00 20.00     0.007 A 
HETATM    4  C4  UNL     1     -33.273   7.699   4.328  1.00 20.00     0.013 A 
HETATM    5  C5  UNL     1     -34.124   6.868   5.057  1.00 20.00    -0.061 A 
HETATM    6  C6  UNL     1     -33.042   7.446   2.976  1.00 20.00    -0.058 A 
HETATM    7  C7  UNL     1     -34.370   7.136   6.504  1.00 20.00     0.048 C 
ENDROOT
BRANCH   6   8
HETATM    8  C9  UNL     1     -32.133   8.335   2.195  1.00 20.00     0.034 C 
HETATM    9  C8  UNL     1     -32.875   9.503   1.551  1.00 20.00     0.010 C 
ENDBRANCH   6   8
TORSDOF 1
