REMARK  4 active torsions:
REMARK  status: ('A' for Active; 'I' for Inactive)
REMARK    1  A    between atoms: C6_6  and  C7_7 
REMARK    2  A    between atoms: C7_7  and  C8_8 
REMARK    3  A    between atoms: C8_8  and  C9_9 
REMARK    4  A    between atoms: C9_9  and  O10_10 
ROOT
HETATM    1  C1  UNL     1     -34.705   5.867   5.011  1.00 20.00     0.000 A 
HETATM    2  C2  UNL     1     -33.926   6.947   5.427  1.00 20.00     0.001 A 
HETATM    3  C3  UNL     1     -34.548   5.346   3.727  1.00 20.00     0.001 A 
HETATM    4  C4  UNL     1     -32.990   7.506   4.558  1.00 20.00     0.007 A 
HETATM    5  C5  UNL     1     -33.611   5.906   2.858  1.00 20.00     0.007 A 
HETATM    6  C6  UNL     1     -32.832   6.986   3.273  1.00 20.00    -0.058 A 
ENDROOT
BRANCH   6   7
HETATM    7  C7  UNL     1     -31.831   7.584   2.343  1.00 20.00     0.041 C 
BRANCH   7   8
HETATM    8  C8  UNL     1     -32.431   8.715   1.498  1.00 20.00     0.030 C 
BRANCH   8   9
HETATM    9  C9  UNL     1     -32.919   9.875   2.354  1.00 20.00     0.164 C 
BRANCH   9  10
HETATM   10  O10 UNL     1     -33.473  10.872   1.506  1.00 20.00    -0.401 OA
HETATM   11  H22 UNL     1     -33.774  11.594   2.080  1.00 20.00     0.209 HD
ENDBRANCH   9  10
ENDBRANCH   8   9
ENDBRANCH   7   8
ENDBRANCH   6   7
TORSDOF 4
