REMARK  4 active torsions:
REMARK  status: ('A' for Active; 'I' for Inactive)
REMARK    1  A    between atoms: C6_6  and  C7_7 
REMARK    2  A    between atoms: C7_7  and  C8_8 
REMARK    3  A    between atoms: C8_8  and  C9_9 
REMARK    4  A    between atoms: C9_9  and  S10_10 
ROOT
HETATM    1  C1  UNL     1     -34.788   5.432   5.836  1.00 20.00     0.000 A 
HETATM    2  C2  UNL     1     -34.140   6.623   6.164  1.00 20.00     0.001 A 
HETATM    3  C3  UNL     1     -34.574   4.842   4.590  1.00 20.00     0.001 A 
HETATM    4  C4  UNL     1     -33.278   7.224   5.247  1.00 20.00     0.007 A 
HETATM    5  C5  UNL     1     -33.712   5.443   3.672  1.00 20.00     0.007 A 
HETATM    6  C6  UNL     1     -33.064   6.634   4.001  1.00 20.00    -0.058 A 
ENDROOT
BRANCH   6   7
HETATM    7  C7  UNL     1     -32.143   7.277   3.019  1.00 20.00     0.039 C 
BRANCH   7   8
HETATM    8  C8  UNL     1     -32.825   8.282   2.070  1.00 20.00     0.014 C 
BRANCH   8   9
HETATM    9  C9  UNL     1     -31.845   8.895   1.070  1.00 20.00     0.071 C 
BRANCH   9  10
HETATM   10  S10 UNL     1     -32.700  10.062  -0.029  1.00 20.00    -0.182 SA
HETATM   11  H22 UNL     1     -31.618  10.401  -0.743  1.00 20.00     0.101 HD
ENDBRANCH   9  10
ENDBRANCH   8   9
ENDBRANCH   7   8
ENDBRANCH   6   7
TORSDOF 4
