REMARK  0 active torsions:
REMARK  status: ('A' for Active; 'I' for Inactive)
ROOT
HETATM    1  C1  UNL     1     -33.547   6.689   5.276  1.00 20.00     0.008 A 
HETATM    2  C2  UNL     1     -34.235   5.386   3.361  1.00 20.00     0.008 A 
HETATM    3  C3  UNL     1     -33.203   7.746   4.433  1.00 20.00     0.019 A 
HETATM    4  C4  UNL     1     -33.891   6.443   2.518  1.00 20.00     0.019 A 
HETATM    5  C5  UNL     1     -34.062   5.509   4.740  1.00 20.00    -0.062 A 
HETATM    6  C6  UNL     1     -33.375   7.623   3.054  1.00 20.00     0.006 A 
HETATM    7  C7  UNL     1     -34.428   4.378   5.641  1.00 20.00     0.048 C 
HETATM    8  I8  UNL     1     -32.861   9.196   1.799  1.00 20.00    -0.045 I 
ENDROOT
TORSDOF 0
