REMARK  3 active torsions:
REMARK  status: ('A' for Active; 'I' for Inactive)
REMARK    1  A    between atoms: C2_2  and  C7_7 
REMARK    2  A    between atoms: C3_3  and  C8_8 
REMARK    3  A    between atoms: C7_7  and  C8_8 
ROOT
HETATM    1  C3  UNL     1     -32.224   8.365   1.300  1.00 20.00    -0.024 C 
HETATM    2  C4  UNL     1     -32.504   9.445   0.545  1.00 20.00    -0.091 C 
HETATM    3  C5  UNL     1     -32.944   9.280  -0.886  1.00 20.00     0.042 C 
HETATM    4  C6  UNL     1     -32.429  10.872   1.009  1.00 20.00     0.042 C 
ENDROOT
BRANCH   1   5
HETATM    5  C8  UNL     1     -31.751   8.331   2.727  1.00 20.00     0.031 C 
BRANCH   5   6
HETATM    6  C7  UNL     1     -32.707   7.563   3.645  1.00 20.00     0.030 C 
BRANCH   6   7
HETATM    7  C2  UNL     1     -32.908   6.140   3.208  1.00 20.00    -0.037 C 
HETATM    8  C1  UNL     1     -34.093   5.621   2.870  1.00 20.00     0.007 C 
ENDBRANCH   6   7
ENDBRANCH   5   6
ENDBRANCH   1   5
TORSDOF 3
