REMARK  1 active torsions:
REMARK  status: ('A' for Active; 'I' for Inactive)
REMARK    1  A    between atoms: C6_6  and  O8_8 
ROOT
HETATM    1  C1  UNL     1     -34.229   4.578   5.891  1.00 20.00     0.000 A 
HETATM    2  C2  UNL     1     -33.991   5.952   5.932  1.00 20.00     0.003 A 
HETATM    3  C3  UNL     1     -34.195   3.900   4.673  1.00 20.00     0.003 A 
HETATM    4  C4  UNL     1     -33.720   6.648   4.754  1.00 20.00     0.037 A 
HETATM    5  C5  UNL     1     -33.924   4.596   3.495  1.00 20.00     0.037 A 
HETATM    6  C6  UNL     1     -33.686   5.970   3.535  1.00 20.00     0.068 A 
ENDROOT
BRANCH   6   7
HETATM    7  O8  UNL     1     -33.423   6.649   2.385  1.00 20.00    -0.356 OA
HETATM    8  C7  UNL     1     -33.190   8.052   2.498  1.00 20.00     0.210 C 
ENDBRANCH   6   7
TORSDOF 1
