REMARK  0 active torsions:
REMARK  status: ('A' for Active; 'I' for Inactive)
ROOT
HETATM    1  C1  UNL     1     -34.148   3.767   4.134  1.00 20.00     0.001 A 
HETATM    2  C2  UNL     1     -34.504   4.477   5.283  1.00 20.00     0.003 A 
HETATM    3  C3  UNL     1     -33.482   4.395   3.073  1.00 20.00     0.014 A 
HETATM    4  C4  UNL     1     -34.208   5.837   5.416  1.00 20.00     0.038 A 
HETATM    5  C5  UNL     1     -32.534   6.730   2.366  1.00 20.00     0.039 A 
HETATM    6  C6  UNL     1     -32.556   7.910   3.073  1.00 20.00     0.143 A 
HETATM    7  C7  UNL     1     -33.175   5.762   3.184  1.00 20.00    -0.001 A 
HETATM    8  C8  UNL     1     -33.546   6.434   4.345  1.00 20.00     0.085 A 
HETATM    9  O9  UNL     1     -33.167   7.742   4.274  1.00 20.00    -0.322 OA
ENDROOT
TORSDOF 0
