REMARK  0 active torsions:
REMARK  status: ('A' for Active; 'I' for Inactive)
ROOT
HETATM    1  C1  UNL     1     -34.132   5.914   5.854  1.00 20.00    -0.030 C 
HETATM    2  C2  UNL     1     -34.090   4.575   5.810  1.00 20.00    -0.030 C 
HETATM    3  C3  UNL     1     -34.039   6.777   4.631  1.00 20.00     0.026 C 
HETATM    4  C4  UNL     1     -33.911   3.802   4.537  1.00 20.00     0.026 C 
HETATM    5  C5  UNL     1     -34.219   5.995   3.327  1.00 20.00     0.004 C 
HETATM    6  C6  UNL     1     -33.457   4.673   3.363  1.00 20.00     0.004 C 
ENDROOT
TORSDOF 0
