REMARK  3 active torsions:
REMARK  status: ('A' for Active; 'I' for Inactive)
REMARK    1  A    between atoms: C3_3  and  S5_5 
REMARK    2  A    between atoms: C4_4  and  S6_6 
REMARK    3  A    between atoms: S5_5  and  S6_6 
ROOT
HETATM    1  S5  UNL     1     -33.618   7.278   3.775  1.00 20.00    -0.098 SA
ENDROOT
BRANCH   1   2
HETATM    2  C3  UNL     1     -34.203   5.578   3.576  1.00 20.00     0.081 C 
HETATM    3  C1  UNL     1     -34.715   5.033   4.895  1.00 20.00     0.017 C 
ENDBRANCH   1   2
BRANCH   1   4
HETATM    4  S6  UNL     1     -33.001   7.734   1.867  1.00 20.00    -0.098 SA
BRANCH   4   5
HETATM    5  C4  UNL     1     -32.416   9.434   2.066  1.00 20.00     0.081 C 
HETATM    6  C2  UNL     1     -31.903   9.979   0.746  1.00 20.00     0.017 C 
ENDBRANCH   4   5
ENDBRANCH   1   4
TORSDOF 3
