REMARK  3 active torsions:
REMARK  status: ('A' for Active; 'I' for Inactive)
REMARK    1  A    between atoms: C5_5  and  S7_7 
REMARK    2  A    between atoms: C6_6  and  S8_8 
REMARK    3  A    between atoms: S7_7  and  S8_8 
ROOT
HETATM    1  S7  UNL     1     -31.866   8.418   2.738  1.00 20.00    -0.093 SA
ENDROOT
BRANCH   1   2
HETATM    2  C5  UNL     1     -32.663   9.267   1.334  1.00 20.00     0.050 C 
HETATM    3  C1  UNL     1     -32.513  10.775   1.493  1.00 20.00     0.022 C 
HETATM    4  C2  UNL     1     -32.050   8.782   0.025  1.00 20.00     0.022 C 
ENDBRANCH   1   2
BRANCH   1   5
HETATM    5  S8  UNL     1     -32.777   6.579   2.666  1.00 20.00    -0.093 SA
BRANCH   5   6
HETATM    6  C6  UNL     1     -34.215   6.837   3.732  1.00 20.00     0.050 C 
HETATM    7  C3  UNL     1     -35.273   5.781   3.432  1.00 20.00     0.022 C 
HETATM    8  C4  UNL     1     -33.786   6.794   5.194  1.00 20.00     0.022 C 
ENDBRANCH   5   6
ENDBRANCH   1   5
TORSDOF 3
