REMARK  0 active torsions:
REMARK  status: ('A' for Active; 'I' for Inactive)
ROOT
HETATM    1  C1  UNL     1     -34.310   4.188   5.103  1.00 20.00     0.000 A 
HETATM    2  C2  UNL     1     -33.807   4.185   3.802  1.00 20.00     0.003 A 
HETATM    3  C3  UNL     1     -34.529   5.396   5.764  1.00 20.00     0.003 A 
HETATM    4  C4  UNL     1     -33.525   5.392   3.162  1.00 20.00     0.042 A 
HETATM    5  C5  UNL     1     -34.246   6.603   5.124  1.00 20.00     0.042 A 
HETATM    6  C6  UNL     1     -33.744   6.600   3.823  1.00 20.00     0.116 A 
HETATM    7  F7  UNL     1     -33.472   7.759   3.208  1.00 20.00    -0.206 F 
ENDROOT
TORSDOF 0
