REMARK  0 active torsions:
REMARK  status: ('A' for Active; 'I' for Inactive)
ROOT
HETATM    1  C1  UNL     1     -32.615  10.365   0.155  1.00 20.00     0.016 C 
HETATM    2  C2  UNL     1     -32.358  10.011   1.610  1.00 20.00     0.075 C 
HETATM    3  I3  UNL     1     -32.679   7.932   1.954  1.00 20.00    -0.090 I 
ENDROOT
TORSDOF 0
