REMARK  0 active torsions:
REMARK  status: ('A' for Active; 'I' for Inactive)
ROOT
HETATM    1  C1  UNL     1     -34.550   4.467   5.410  1.00 20.00     0.000 A 
HETATM    2  C2  UNL     1     -34.179   4.179   4.097  1.00 20.00     0.001 A 
HETATM    3  C3  UNL     1     -34.468   5.776   5.887  1.00 20.00     0.001 A 
HETATM    4  C4  UNL     1     -33.725   5.199   3.261  1.00 20.00     0.018 A 
HETATM    5  C5  UNL     1     -34.014   6.795   5.050  1.00 20.00     0.018 A 
HETATM    6  C6  UNL     1     -33.643   6.507   3.737  1.00 20.00     0.006 A 
HETATM    7  I7  UNL     1     -32.967   8.026   2.492  1.00 20.00    -0.045 I 
ENDROOT
TORSDOF 0
