REMARK  0 active torsions:
REMARK  status: ('A' for Active; 'I' for Inactive)
ROOT
HETATM    1  C1  UNL     1     -33.718   4.292   3.336  1.00 20.00     0.000 C 
HETATM    2  C2  UNL     1     -33.802   5.714   2.789  1.00 20.00     0.000 C 
HETATM    3  C3  UNL     1     -34.585   4.117   4.579  1.00 20.00     0.000 C 
HETATM    4  C4  UNL     1     -33.462   6.749   3.858  1.00 20.00     0.004 C 
HETATM    5  C5  UNL     1     -34.247   5.150   5.651  1.00 20.00     0.004 C 
HETATM    6  C6  UNL     1     -34.338   6.582   5.107  1.00 20.00    -0.018 C 
HETATM    7  C7  UNL     1     -33.944   7.594   6.182  1.00 20.00     0.010 C 
ENDROOT
TORSDOF 0
