REMARK  3 active torsions:
REMARK  status: ('A' for Active; 'I' for Inactive)
REMARK    1  A    between atoms: C6_6  and  C8_8 
REMARK    2  A    between atoms: C8_8  and  C10_10 
REMARK    3  A    between atoms: C9_9  and  C10_10 
ROOT
HETATM    1  C1  UNL     1     -34.518   4.561   4.843  1.00 20.00     0.000 A 
HETATM    2  C2  UNL     1     -34.366   5.871   5.297  1.00 20.00     0.001 A 
HETATM    3  C3  UNL     1     -33.856   4.142   3.689  1.00 20.00     0.001 A 
HETATM    4  C4  UNL     1     -33.552   6.762   4.598  1.00 20.00     0.007 A 
HETATM    5  C5  UNL     1     -33.042   5.033   2.990  1.00 20.00     0.007 A 
HETATM    6  C6  UNL     1     -32.890   6.343   3.444  1.00 20.00    -0.058 A 
ENDROOT
BRANCH   6   7
HETATM    7  C8  UNL     1     -32.010   7.305   2.687  1.00 20.00     0.038 C 
BRANCH   7   8
HETATM    8  C10 UNL     1     -32.800   8.066   1.618  1.00 20.00     0.004 C 
BRANCH   8   9
HETATM    9  C9  UNL     1     -31.896   9.014   0.830  1.00 20.00    -0.004 C 
HETATM   10  C7  UNL     1     -32.667   9.743  -0.260  1.00 20.00     0.005 C 
ENDBRANCH   8   9
ENDBRANCH   7   8
ENDBRANCH   6   7
TORSDOF 3
