REMARK  5 active torsions:
REMARK  status: ('A' for Active; 'I' for Inactive)
REMARK    1  A    between atoms: C6_6  and  C8_8 
REMARK    2  A    between atoms: C8_8  and  C10_10 
REMARK    3  A    between atoms: C9_9  and  C11_11 
REMARK    4  A    between atoms: C10_10  and  C12_12 
REMARK    5  A    between atoms: C11_11  and  C12_12 
ROOT
HETATM    1  C1  UNL     1     -34.160   6.115   6.015  1.00 20.00     0.000 A 
HETATM    2  C2  UNL     1     -34.696   5.487   4.890  1.00 20.00     0.001 A 
HETATM    3  C3  UNL     1     -33.296   7.199   5.862  1.00 20.00     0.001 A 
HETATM    4  C4  UNL     1     -34.369   5.943   3.614  1.00 20.00     0.007 A 
HETATM    5  C5  UNL     1     -32.969   7.656   4.585  1.00 20.00     0.007 A 
HETATM    6  C6  UNL     1     -33.505   7.028   3.461  1.00 20.00    -0.058 A 
ENDROOT
BRANCH   6   7
HETATM    7  C8  UNL     1     -33.153   7.519   2.091  1.00 20.00     0.038 C 
BRANCH   7   8
HETATM    8  C10 UNL     1     -31.751   8.132   2.051  1.00 20.00     0.005 C 
BRANCH   8   9
HETATM    9  C12 UNL     1     -31.390   8.597   0.639  1.00 20.00     0.000 C 
BRANCH   9  10
HETATM   10  C11 UNL     1     -32.392   9.629   0.119  1.00 20.00    -0.000 C 
BRANCH  10  11
HETATM   11  C9  UNL     1     -32.407  10.880   0.997  1.00 20.00    -0.005 C 
HETATM   12  C7  UNL     1     -33.377  11.923   0.464  1.00 20.00     0.005 C 
ENDBRANCH  10  11
ENDBRANCH   9  10
ENDBRANCH   8   9
ENDBRANCH   7   8
ENDBRANCH   6   7
TORSDOF 5
