REMARK  0 active torsions:
REMARK  status: ('A' for Active; 'I' for Inactive)
ROOT
HETATM    1  C1  UNL     1     -33.892   4.113   3.468  1.00 20.00     0.001 A 
HETATM    2  C2  UNL     1     -34.215   3.829   4.795  1.00 20.00     0.001 A 
HETATM    3  C3  UNL     1     -33.692   5.433   3.065  1.00 20.00     0.007 A 
HETATM    4  C4  UNL     1     -34.338   4.867   5.720  1.00 20.00     0.007 A 
HETATM    5  C5  UNL     1     -33.815   6.470   3.990  1.00 20.00    -0.056 A 
HETATM    6  C6  UNL     1     -34.138   6.187   5.317  1.00 20.00    -0.056 A 
HETATM    7  C7  UNL     1     -33.595   7.876   3.536  1.00 20.00     0.049 C 
HETATM    8  C8  UNL     1     -34.276   7.281   6.324  1.00 20.00     0.049 C 
ENDROOT
TORSDOF 0
