REMARK  0 active torsions:
REMARK  status: ('A' for Active; 'I' for Inactive)
ROOT
HETATM    1  C1  UNL     1     -34.270   5.397   3.418  1.00 20.00     0.007 A 
HETATM    2  C2  UNL     1     -33.667   6.237   2.482  1.00 20.00     0.007 A 
HETATM    3  C3  UNL     1     -33.602   6.896   5.192  1.00 20.00     0.007 A 
HETATM    4  C4  UNL     1     -32.999   7.735   4.256  1.00 20.00     0.007 A 
HETATM    5  C5  UNL     1     -34.237   5.727   4.773  1.00 20.00    -0.062 A 
HETATM    6  C6  UNL     1     -33.031   7.406   2.901  1.00 20.00    -0.062 A 
HETATM    7  C7  UNL     1     -34.882   4.830   5.775  1.00 20.00     0.048 C 
HETATM    8  C8  UNL     1     -32.385   8.302   1.899  1.00 20.00     0.048 C 
ENDROOT
TORSDOF 0
