REMARK  0 active torsions:
REMARK  status: ('A' for Active; 'I' for Inactive)
ROOT
HETATM    1  C1  UNL     1     -32.313   8.219   2.495  1.00 20.00     0.018 C 
HETATM    2  C2  UNL     1     -32.832   7.385   3.185  1.00 20.00    -0.078 C 
HETATM    3  C3  UNL     1     -34.656   4.452   5.608  1.00 20.00     0.000 A 
HETATM    4  C4  UNL     1     -34.261   4.136   4.308  1.00 20.00     0.001 A 
HETATM    5  C5  UNL     1     -34.448   5.738   6.107  1.00 20.00     0.001 A 
HETATM    6  C6  UNL     1     -33.658   5.106   3.507  1.00 20.00     0.020 A 
HETATM    7  C7  UNL     1     -33.845   6.708   5.306  1.00 20.00     0.020 A 
HETATM    8  C8  UNL     1     -33.450   6.392   4.006  1.00 20.00     0.016 A 
ENDROOT
TORSDOF 0
