REMARK  2 active torsions:
REMARK  status: ('A' for Active; 'I' for Inactive)
REMARK    1  A    between atoms: C6_6  and  C10_10 
REMARK    2  A    between atoms: C9_9  and  C10_10 
ROOT
HETATM    1  C1  UNL     1     -34.501   4.648   5.372  1.00 20.00     0.000 A 
HETATM    2  C2  UNL     1     -34.409   4.609   3.981  1.00 20.00     0.001 A 
HETATM    3  C3  UNL     1     -34.068   5.777   6.068  1.00 20.00     0.001 A 
HETATM    4  C4  UNL     1     -33.883   5.697   3.285  1.00 20.00     0.007 A 
HETATM    5  C5  UNL     1     -33.541   6.865   5.372  1.00 20.00     0.007 A 
HETATM    6  C6  UNL     1     -33.449   6.826   3.981  1.00 20.00    -0.054 A 
ENDROOT
BRANCH   6   7
HETATM    7  C10 UNL     1     -32.875   8.012   3.225  1.00 20.00     0.014 C 
HETATM    8  C8  UNL     1     -31.840   8.747   4.084  1.00 20.00     0.015 C 
BRANCH   7   9
HETATM    9  C9  UNL     1     -32.263   7.624   1.863  1.00 20.00     0.004 C 
HETATM   10  C7  UNL     1     -31.692   8.815   1.103  1.00 20.00     0.006 C 
ENDBRANCH   7   9
ENDBRANCH   6   7
TORSDOF 2
