REMARK  1 active torsions:
REMARK  status: ('A' for Active; 'I' for Inactive)
REMARK    1  A    between atoms: C6_6  and  C8_8 
ROOT
HETATM    1  C1  UNL     1     -34.476   4.602   5.952  1.00 20.00     0.000 A 
HETATM    2  C2  UNL     1     -34.321   3.898   4.758  1.00 20.00     0.001 A 
HETATM    3  C3  UNL     1     -34.153   5.957   6.009  1.00 20.00     0.001 A 
HETATM    4  C4  UNL     1     -33.843   4.549   3.621  1.00 20.00     0.011 A 
HETATM    5  C5  UNL     1     -33.675   6.609   4.872  1.00 20.00     0.011 A 
HETATM    6  C6  UNL     1     -33.520   5.905   3.678  1.00 20.00    -0.037 A 
ENDROOT
BRANCH   6   7
HETATM    7  C8  UNL     1     -33.021   6.585   2.493  1.00 20.00     0.001 C 
HETATM    8  C7  UNL     1     -32.160   7.593   2.530  1.00 20.00     0.012 C 
ENDBRANCH   6   7
TORSDOF 1
