REMARK  0 active torsions:
REMARK  status: ('A' for Active; 'I' for Inactive)
ROOT
HETATM    1  C1  UNL     1     -34.905   4.987   4.359  1.00 20.00     0.001 A 
HETATM    2  C2  UNL     1     -34.611   5.530   5.602  1.00 20.00     0.001 A 
HETATM    3  C3  UNL     1     -34.302   5.496   3.206  1.00 20.00     0.013 A 
HETATM    4  C4  UNL     1     -33.710   6.590   5.720  1.00 20.00     0.019 A 
HETATM    5  C5  UNL     1     -32.647   7.253   2.267  1.00 20.00     0.020 A 
HETATM    6  C6  UNL     1     -31.848   8.257   2.760  1.00 20.00     0.051 A 
HETATM    7  C7  UNL     1     -33.384   6.570   3.292  1.00 20.00    -0.019 A 
HETATM    8  C8  UNL     1     -33.103   7.100   4.555  1.00 20.00     0.015 A 
HETATM    9  S9  UNL     1     -31.969   8.395   4.455  1.00 20.00    -0.101 SA
ENDROOT
TORSDOF 0
