REMARK  1 active torsions:
REMARK  status: ('A' for Active; 'I' for Inactive)
REMARK    1  A    between atoms: C6_6  and  S8_8 
ROOT
HETATM    1  C1  UNL     1     -34.607   4.884   5.911  1.00 20.00     0.000 A 
HETATM    2  C2  UNL     1     -34.110   6.165   6.154  1.00 20.00     0.001 A 
HETATM    3  C3  UNL     1     -34.550   4.346   4.625  1.00 20.00     0.001 A 
HETATM    4  C4  UNL     1     -33.557   6.908   5.111  1.00 20.00     0.018 A 
HETATM    5  C5  UNL     1     -33.997   5.089   3.582  1.00 20.00     0.018 A 
HETATM    6  C6  UNL     1     -33.500   6.370   3.825  1.00 20.00    -0.000 A 
ENDROOT
BRANCH   6   7
HETATM    7  S8  UNL     1     -32.794   7.319   2.492  1.00 20.00    -0.134 SA
HETATM    8  C7  UNL     1     -31.593   8.296   3.422  1.00 20.00     0.095 C 
ENDBRANCH   6   7
TORSDOF 1
