REMARK  0 active torsions:
REMARK  status: ('A' for Active; 'I' for Inactive)
ROOT
HETATM    1  C1  UNL     1     -34.554   4.479   5.713  1.00 20.00     0.000 A 
HETATM    2  C2  UNL     1     -34.754   5.858   5.666  1.00 20.00     0.001 A 
HETATM    3  C3  UNL     1     -33.982   3.819   4.625  1.00 20.00     0.001 A 
HETATM    4  C4  UNL     1     -34.381   6.579   4.531  1.00 20.00     0.007 A 
HETATM    5  C5  UNL     1     -33.610   4.540   3.490  1.00 20.00     0.007 A 
HETATM    6  C6  UNL     1     -33.809   5.919   3.444  1.00 20.00    -0.062 A 
HETATM    7  C7  UNL     1     -33.410   6.689   2.230  1.00 20.00     0.048 C 
ENDROOT
TORSDOF 0
