MODEL 1
REMARK VINA RESULT:      -3.5      0.000      0.000
REMARK  2 active torsions:
REMARK  status: ('A' for Active; 'I' for Inactive)
REMARK    1  A    between atoms: C5_5  and  S7_7 
REMARK    2  A    between atoms: C6_6  and  S8_8 
ROOT
HETATM    1  C1  UNL     1     -35.152   4.095   4.452  1.00 20.00     0.001 A 
HETATM    2  C2  UNL     1     -35.318   4.248   5.828  1.00 20.00     0.001 A 
HETATM    3  C3  UNL     1     -34.368   5.002   3.738  1.00 20.00     0.019 A 
HETATM    4  C4  UNL     1     -34.701   5.309   6.491  1.00 20.00     0.019 A 
HETATM    5  C5  UNL     1     -33.752   6.063   4.401  1.00 20.00     0.014 A 
HETATM    6  C6  UNL     1     -33.917   6.217   5.778  1.00 20.00     0.014 A 
ENDROOT
BRANCH   5   7
HETATM    7  S7  UNL     1     -32.765   7.176   3.399  1.00 20.00    -0.142 SA
HETATM    8  H13 UNL     1     -32.056   6.232   2.764  1.00 20.00     0.107 HD
ENDBRANCH   5   7
BRANCH   6   9
HETATM    9  S8  UNL     1     -33.166   7.546   6.717  1.00 20.00    -0.142 SA
HETATM   10  H14 UNL     1     -34.185   7.736   7.567  1.00 20.00     0.107 HD
ENDBRANCH   6   9
TORSDOF 2
ENDMDL
MODEL 2
REMARK VINA RESULT:      -3.5      0.021      2.397
REMARK  2 active torsions:
REMARK  status: ('A' for Active; 'I' for Inactive)
REMARK    1  A    between atoms: C5_5  and  S7_7 
REMARK    2  A    between atoms: C6_6  and  S8_8 
ROOT
HETATM    1  C1  UNL     1     -35.312   4.252   5.808  1.00 20.00     0.001 A 
HETATM    2  C2  UNL     1     -35.135   4.105   4.433  1.00 20.00     0.001 A 
HETATM    3  C3  UNL     1     -34.702   5.311   6.481  1.00 20.00     0.019 A 
HETATM    4  C4  UNL     1     -34.347   5.017   3.730  1.00 20.00     0.019 A 
HETATM    5  C5  UNL     1     -33.914   6.222   5.778  1.00 20.00     0.014 A 
HETATM    6  C6  UNL     1     -33.737   6.075   4.403  1.00 20.00     0.014 A 
ENDROOT
BRANCH   5   7
HETATM    7  S7  UNL     1     -33.172   7.549   6.730  1.00 20.00    -0.142 SA
HETATM    8  H13 UNL     1     -33.804   7.290   7.883  1.00 20.00     0.107 HD
ENDBRANCH   5   7
BRANCH   6   9
HETATM    9  S8  UNL     1     -32.743   7.193   3.413  1.00 20.00    -0.142 SA
HETATM   10  H14 UNL     1     -33.731   8.035   3.082  1.00 20.00     0.107 HD
ENDBRANCH   6   9
TORSDOF 2
ENDMDL
MODEL 3
REMARK VINA RESULT:      -3.4     12.615     13.022
REMARK  2 active torsions:
REMARK  status: ('A' for Active; 'I' for Inactive)
REMARK    1  A    between atoms: C5_5  and  S7_7 
REMARK    2  A    between atoms: C6_6  and  S8_8 
ROOT
HETATM    1  C1  UNL     1     -33.770  13.615  -4.094  1.00 20.00     0.001 A 
HETATM    2  C2  UNL     1     -33.045  14.675  -3.551  1.00 20.00     0.001 A 
HETATM    3  C3  UNL     1     -35.161  13.692  -4.178  1.00 20.00     0.019 A 
HETATM    4  C4  UNL     1     -33.710  15.812  -3.091  1.00 20.00     0.019 A 
HETATM    5  C5  UNL     1     -35.825  14.827  -3.718  1.00 20.00     0.014 A 
HETATM    6  C6  UNL     1     -35.100  15.888  -3.175  1.00 20.00     0.014 A 
ENDROOT
BRANCH   5   7
HETATM    7  S7  UNL     1     -37.612  14.833  -3.868  1.00 20.00    -0.142 SA
HETATM    8  H13 UNL     1     -37.659  14.971  -5.200  1.00 20.00     0.107 HD
ENDBRANCH   5   7
BRANCH   6   9
HETATM    9  S8  UNL     1     -35.864  17.389  -2.557  1.00 20.00    -0.142 SA
HETATM   10  H14 UNL     1     -36.444  17.758  -3.707  1.00 20.00     0.107 HD
ENDBRANCH   6   9
TORSDOF 2
ENDMDL
MODEL 4
REMARK VINA RESULT:      -3.4     13.127     14.229
REMARK  2 active torsions:
REMARK  status: ('A' for Active; 'I' for Inactive)
REMARK    1  A    between atoms: C5_5  and  S7_7 
REMARK    2  A    between atoms: C6_6  and  S8_8 
ROOT
HETATM    1  C1  UNL     1     -33.653  13.736  -3.918  1.00 20.00     0.001 A 
HETATM    2  C2  UNL     1     -33.064  14.951  -3.566  1.00 20.00     0.001 A 
HETATM    3  C3  UNL     1     -34.423  13.644  -5.077  1.00 20.00     0.019 A 
HETATM    4  C4  UNL     1     -33.246  16.073  -4.374  1.00 20.00     0.019 A 
HETATM    5  C5  UNL     1     -34.605  14.765  -5.884  1.00 20.00     0.014 A 
HETATM    6  C6  UNL     1     -34.016  15.981  -5.534  1.00 20.00     0.014 A 
ENDROOT
BRANCH   5   7
HETATM    7  S7  UNL     1     -35.611  14.548  -7.353  1.00 20.00    -0.142 SA
HETATM    8  H13 UNL     1     -34.641  14.787  -8.247  1.00 20.00     0.107 HD
ENDBRANCH   5   7
BRANCH   6   9
HETATM    9  S8  UNL     1     -34.193  17.477  -6.506  1.00 20.00    -0.142 SA
HETATM   10  H14 UNL     1     -33.153  18.135  -5.976  1.00 20.00     0.107 HD
ENDBRANCH   6   9
TORSDOF 2
ENDMDL
MODEL 5
REMARK VINA RESULT:      -3.4     12.631     13.103
REMARK  2 active torsions:
REMARK  status: ('A' for Active; 'I' for Inactive)
REMARK    1  A    between atoms: C5_5  and  S7_7 
REMARK    2  A    between atoms: C6_6  and  S8_8 
ROOT
HETATM    1  C1  UNL     1     -33.036  14.709  -3.532  1.00 20.00     0.001 A 
HETATM    2  C2  UNL     1     -33.756  13.656  -4.096  1.00 20.00     0.001 A 
HETATM    3  C3  UNL     1     -33.707  15.830  -3.043  1.00 20.00     0.019 A 
HETATM    4  C4  UNL     1     -35.147  13.725  -4.172  1.00 20.00     0.019 A 
HETATM    5  C5  UNL     1     -35.097  15.898  -3.119  1.00 20.00     0.014 A 
HETATM    6  C6  UNL     1     -35.818  14.846  -3.683  1.00 20.00     0.014 A 
ENDROOT
BRANCH   5   7
HETATM    7  S7  UNL     1     -35.870  17.379  -2.465  1.00 20.00    -0.142 SA
HETATM    8  H13 UNL     1     -34.831  17.784  -1.721  1.00 20.00     0.107 HD
ENDBRANCH   5   7
BRANCH   6   9
HETATM    9  S8  UNL     1     -37.606  14.841  -3.827  1.00 20.00    -0.142 SA
HETATM   10  H14 UNL     1     -37.660  14.580  -5.140  1.00 20.00     0.107 HD
ENDBRANCH   6   9
TORSDOF 2
ENDMDL
MODEL 6
REMARK VINA RESULT:      -3.4     13.142     14.303
REMARK  2 active torsions:
REMARK  status: ('A' for Active; 'I' for Inactive)
REMARK    1  A    between atoms: C5_5  and  S7_7 
REMARK    2  A    between atoms: C6_6  and  S8_8 
ROOT
HETATM    1  C1  UNL     1     -33.074  14.970  -3.571  1.00 20.00     0.001 A 
HETATM    2  C2  UNL     1     -33.656  13.752  -3.924  1.00 20.00     0.001 A 
HETATM    3  C3  UNL     1     -33.259  16.092  -4.379  1.00 20.00     0.019 A 
HETATM    4  C4  UNL     1     -34.423  13.657  -5.085  1.00 20.00     0.019 A 
HETATM    5  C5  UNL     1     -34.025  15.996  -5.540  1.00 20.00     0.014 A 
HETATM    6  C6  UNL     1     -34.608  14.779  -5.893  1.00 20.00     0.014 A 
ENDROOT
BRANCH   5   7
HETATM    7  S7  UNL     1     -34.206  17.491  -6.514  1.00 20.00    -0.142 SA
HETATM    8  H13 UNL     1     -34.882  16.939  -7.530  1.00 20.00     0.107 HD
ENDBRANCH   5   7
BRANCH   6   9
HETATM    9  S8  UNL     1     -35.608  14.556  -7.365  1.00 20.00    -0.142 SA
HETATM   10  H14 UNL     1     -36.550  13.786  -6.803  1.00 20.00     0.107 HD
ENDBRANCH   6   9
TORSDOF 2
ENDMDL
MODEL 7
REMARK VINA RESULT:      -3.4      1.338      2.623
REMARK  2 active torsions:
REMARK  status: ('A' for Active; 'I' for Inactive)
REMARK    1  A    between atoms: C5_5  and  S7_7 
REMARK    2  A    between atoms: C6_6  and  S8_8 
ROOT
HETATM    1  C1  UNL     1     -34.347   5.893   6.531  1.00 20.00     0.001 A 
HETATM    2  C2  UNL     1     -35.191   4.936   5.968  1.00 20.00     0.001 A 
HETATM    3  C3  UNL     1     -33.457   6.602   5.724  1.00 20.00     0.019 A 
HETATM    4  C4  UNL     1     -35.144   4.688   4.596  1.00 20.00     0.019 A 
HETATM    5  C5  UNL     1     -33.410   6.353   4.353  1.00 20.00     0.014 A 
HETATM    6  C6  UNL     1     -34.254   5.396   3.788  1.00 20.00     0.014 A 
ENDROOT
BRANCH   5   7
HETATM    7  S7  UNL     1     -32.235   7.314   3.399  1.00 20.00    -0.142 SA
HETATM    8  H13 UNL     1     -31.288   7.392   4.344  1.00 20.00     0.107 HD
ENDBRANCH   5   7
BRANCH   6   9
HETATM    9  S8  UNL     1     -34.267   5.006   2.038  1.00 20.00    -0.142 SA
HETATM   10  H14 UNL     1     -33.671   3.810   2.137  1.00 20.00     0.107 HD
ENDBRANCH   6   9
TORSDOF 2
ENDMDL
MODEL 8
REMARK VINA RESULT:      -3.4      1.346      2.145
REMARK  2 active torsions:
REMARK  status: ('A' for Active; 'I' for Inactive)
REMARK    1  A    between atoms: C5_5  and  S7_7 
REMARK    2  A    between atoms: C6_6  and  S8_8 
ROOT
HETATM    1  C1  UNL     1     -35.184   4.954   5.981  1.00 20.00     0.001 A 
HETATM    2  C2  UNL     1     -34.337   5.912   6.538  1.00 20.00     0.001 A 
HETATM    3  C3  UNL     1     -35.143   4.698   4.610  1.00 20.00     0.019 A 
HETATM    4  C4  UNL     1     -33.448   6.614   5.724  1.00 20.00     0.019 A 
HETATM    5  C5  UNL     1     -34.255   5.401   3.797  1.00 20.00     0.014 A 
HETATM    6  C6  UNL     1     -33.407   6.358   4.353  1.00 20.00     0.014 A 
ENDROOT
BRANCH   5   7
HETATM    7  S7  UNL     1     -34.275   5.002   2.048  1.00 20.00    -0.142 SA
HETATM    8  H13 UNL     1     -33.019   5.387   1.783  1.00 20.00     0.107 HD
ENDBRANCH   5   7
BRANCH   6   9
HETATM    9  S8  UNL     1     -32.233   7.312   3.390  1.00 20.00    -0.142 SA
HETATM   10  H14 UNL     1     -31.127   6.698   3.831  1.00 20.00     0.107 HD
ENDBRANCH   6   9
TORSDOF 2
ENDMDL
MODEL 9
REMARK VINA RESULT:      -3.4      9.942     10.858
REMARK  2 active torsions:
REMARK  status: ('A' for Active; 'I' for Inactive)
REMARK    1  A    between atoms: C5_5  and  S7_7 
REMARK    2  A    between atoms: C6_6  and  S8_8 
ROOT
HETATM    1  C1  UNL     1     -40.618   5.177  -0.457  1.00 20.00     0.001 A 
HETATM    2  C2  UNL     1     -40.682   6.567  -0.545  1.00 20.00     0.001 A 
HETATM    3  C3  UNL     1     -41.373   4.386  -1.323  1.00 20.00     0.019 A 
HETATM    4  C4  UNL     1     -41.503   7.167  -1.501  1.00 20.00     0.019 A 
HETATM    5  C5  UNL     1     -42.193   4.986  -2.277  1.00 20.00     0.014 A 
HETATM    6  C6  UNL     1     -42.258   6.377  -2.368  1.00 20.00     0.014 A 
ENDROOT
BRANCH   5   7
HETATM    7  S7  UNL     1     -43.125   3.887  -3.346  1.00 20.00    -0.142 SA
HETATM    8  H13 UNL     1     -43.017   2.792  -2.581  1.00 20.00     0.107 HD
ENDBRANCH   5   7
BRANCH   6   9
HETATM    9  S8  UNL     1     -43.282   7.240  -3.560  1.00 20.00    -0.142 SA
HETATM   10  H14 UNL     1     -42.301   7.958  -4.122  1.00 20.00     0.107 HD
ENDBRANCH   6   9
TORSDOF 2
ENDMDL
