MODEL 1
REMARK VINA RESULT:      -5.3      0.000      0.000
REMARK  0 active torsions:
REMARK  status: ('A' for Active; 'I' for Inactive)
ROOT
HETATM    1  C1  UNL     1     -34.625   5.609   6.668  1.00 20.00     0.001 A 
HETATM    2  C2  UNL     1     -35.289   4.669   5.873  1.00 20.00     0.003 A 
HETATM    3  C3  UNL     1     -33.682   6.488   6.118  1.00 20.00     0.016 A 
HETATM    4  C4  UNL     1     -35.035   4.569   4.502  1.00 20.00     0.040 A 
HETATM    5  C5  UNL     1     -32.589   7.042   3.804  1.00 20.00     0.161 A 
HETATM    6  C6  UNL     1     -33.417   6.399   4.743  1.00 20.00     0.019 A 
HETATM    7  C7  UNL     1     -34.093   5.455   3.989  1.00 20.00     0.113 A 
HETATM    8  N8  UNL     1     -32.735   6.545   2.572  1.00 20.00    -0.140 NA
HETATM    9  O9  UNL     1     -33.686   5.540   2.692  1.00 20.00    -0.213 OA
ENDROOT
TORSDOF 0
ENDMDL
MODEL 2
REMARK VINA RESULT:      -5.3      0.957      1.931
REMARK  0 active torsions:
REMARK  status: ('A' for Active; 'I' for Inactive)
ROOT
HETATM    1  C1  UNL     1     -35.293   4.611   5.845  1.00 20.00     0.001 A 
HETATM    2  C2  UNL     1     -34.669   5.540   6.684  1.00 20.00     0.003 A 
HETATM    3  C3  UNL     1     -35.001   4.558   4.476  1.00 20.00     0.016 A 
HETATM    4  C4  UNL     1     -33.732   6.451   6.187  1.00 20.00     0.040 A 
HETATM    5  C5  UNL     1     -33.486   5.767   2.715  1.00 20.00     0.161 A 
HETATM    6  C6  UNL     1     -34.063   5.466   3.963  1.00 20.00     0.019 A 
HETATM    7  C7  UNL     1     -33.465   6.372   4.824  1.00 20.00     0.113 A 
HETATM    8  N8  UNL     1     -32.607   6.771   2.788  1.00 20.00    -0.140 NA
HETATM    9  O9  UNL     1     -32.596   7.152   4.124  1.00 20.00    -0.213 OA
ENDROOT
TORSDOF 0
ENDMDL
MODEL 3
REMARK VINA RESULT:      -4.6      9.971     10.665
REMARK  0 active torsions:
REMARK  status: ('A' for Active; 'I' for Inactive)
ROOT
HETATM    1  C1  UNL     1     -40.627   5.934  -0.411  1.00 20.00     0.001 A 
HETATM    2  C2  UNL     1     -40.969   4.651  -0.851  1.00 20.00     0.003 A 
HETATM    3  C3  UNL     1     -41.123   7.077  -1.052  1.00 20.00     0.016 A 
HETATM    4  C4  UNL     1     -41.815   4.462  -1.948  1.00 20.00     0.040 A 
HETATM    5  C5  UNL     1     -42.673   7.719  -3.063  1.00 20.00     0.161 A 
HETATM    6  C6  UNL     1     -41.973   6.903  -2.154  1.00 20.00     0.019 A 
HETATM    7  C7  UNL     1     -42.288   5.617  -2.562  1.00 20.00     0.113 A 
HETATM    8  N8  UNL     1     -43.364   7.008  -3.959  1.00 20.00    -0.140 NA
HETATM    9  O9  UNL     1     -43.118   5.678  -3.640  1.00 20.00    -0.213 OA
ENDROOT
TORSDOF 0
ENDMDL
MODEL 4
REMARK VINA RESULT:      -4.6      9.924     10.805
REMARK  0 active torsions:
REMARK  status: ('A' for Active; 'I' for Inactive)
ROOT
HETATM    1  C1  UNL     1     -40.658   6.015  -0.420  1.00 20.00     0.001 A 
HETATM    2  C2  UNL     1     -41.184   7.170  -1.006  1.00 20.00     0.003 A 
HETATM    3  C3  UNL     1     -41.000   4.741  -0.892  1.00 20.00     0.016 A 
HETATM    4  C4  UNL     1     -42.072   7.097  -2.085  1.00 20.00     0.040 A 
HETATM    5  C5  UNL     1     -42.488   3.636  -2.742  1.00 20.00     0.161 A 
HETATM    6  C6  UNL     1     -41.890   4.652  -1.973  1.00 20.00     0.019 A 
HETATM    7  C7  UNL     1     -42.390   5.818  -2.528  1.00 20.00     0.113 A 
HETATM    8  N8  UNL     1     -43.291   4.123  -3.693  1.00 20.00    -0.140 NA
HETATM    9  O9  UNL     1     -43.229   5.504  -3.555  1.00 20.00    -0.213 OA
ENDROOT
TORSDOF 0
ENDMDL
MODEL 5
REMARK VINA RESULT:      -4.5     12.171     13.250
REMARK  0 active torsions:
REMARK  status: ('A' for Active; 'I' for Inactive)
ROOT
HETATM    1  C1  UNL     1     -33.802  17.150  -5.017  1.00 20.00     0.001 A 
HETATM    2  C2  UNL     1     -33.556  16.984  -3.650  1.00 20.00     0.003 A 
HETATM    3  C3  UNL     1     -34.232  16.080  -5.812  1.00 20.00     0.016 A 
HETATM    4  C4  UNL     1     -33.729  15.743  -3.027  1.00 20.00     0.040 A 
HETATM    5  C5  UNL     1     -34.807  13.535  -5.586  1.00 20.00     0.161 A 
HETATM    6  C6  UNL     1     -34.409  14.830  -5.202  1.00 20.00     0.019 A 
HETATM    7  C7  UNL     1     -34.156  14.703  -3.846  1.00 20.00     0.113 A 
HETATM    8  N8  UNL     1     -34.802  12.676  -4.563  1.00 20.00    -0.140 NA
HETATM    9  O9  UNL     1     -34.388  13.417  -3.463  1.00 20.00    -0.213 OA
ENDROOT
TORSDOF 0
ENDMDL
MODEL 6
REMARK VINA RESULT:      -4.4     12.154     13.624
REMARK  0 active torsions:
REMARK  status: ('A' for Active; 'I' for Inactive)
ROOT
HETATM    1  C1  UNL     1     -34.354  16.344  -6.816  1.00 20.00     0.001 A 
HETATM    2  C2  UNL     1     -35.046  15.322  -7.473  1.00 20.00     0.003 A 
HETATM    3  C3  UNL     1     -33.848  16.163  -5.522  1.00 20.00     0.016 A 
HETATM    4  C4  UNL     1     -35.259  14.081  -6.863  1.00 20.00     0.040 A 
HETATM    5  C5  UNL     1     -33.741  14.319  -3.665  1.00 20.00     0.161 A 
HETATM    6  C6  UNL     1     -34.054  14.924  -4.898  1.00 20.00     0.019 A 
HETATM    7  C7  UNL     1     -34.743  13.935  -5.579  1.00 20.00     0.113 A 
HETATM    8  N8  UNL     1     -34.195  13.065  -3.583  1.00 20.00    -0.140 NA
HETATM    9  O9  UNL     1     -34.830  12.825  -4.795  1.00 20.00    -0.213 OA
ENDROOT
TORSDOF 0
ENDMDL
MODEL 7
REMARK VINA RESULT:      -4.3      2.168      3.637
REMARK  0 active torsions:
REMARK  status: ('A' for Active; 'I' for Inactive)
ROOT
HETATM    1  C1  UNL     1     -33.420   5.715   2.309  1.00 20.00     0.001 A 
HETATM    2  C2  UNL     1     -32.565   6.680   2.851  1.00 20.00     0.003 A 
HETATM    3  C3  UNL     1     -34.358   5.046   3.106  1.00 20.00     0.016 A 
HETATM    4  C4  UNL     1     -32.615   7.012   4.209  1.00 20.00     0.040 A 
HETATM    5  C5  UNL     1     -35.165   4.973   5.596  1.00 20.00     0.161 A 
HETATM    6  C6  UNL     1     -34.419   5.369   4.470  1.00 20.00     0.019 A 
HETATM    7  C7  UNL     1     -33.557   6.330   4.971  1.00 20.00     0.113 A 
HETATM    8  N8  UNL     1     -34.802   5.628   6.703  1.00 20.00    -0.140 NA
HETATM    9  O9  UNL     1     -33.783   6.485   6.305  1.00 20.00    -0.213 OA
ENDROOT
TORSDOF 0
ENDMDL
MODEL 8
REMARK VINA RESULT:      -4.3      2.104      3.101
REMARK  0 active torsions:
REMARK  status: ('A' for Active; 'I' for Inactive)
ROOT
HETATM    1  C1  UNL     1     -32.655   6.573   2.831  1.00 20.00     0.001 A 
HETATM    2  C2  UNL     1     -33.598   5.678   2.316  1.00 20.00     0.003 A 
HETATM    3  C3  UNL     1     -32.633   6.899   4.194  1.00 20.00     0.016 A 
HETATM    4  C4  UNL     1     -34.554   5.076   3.140  1.00 20.00     0.040 A 
HETATM    5  C5  UNL     1     -33.927   6.331   6.399  1.00 20.00     0.161 A 
HETATM    6  C6  UNL     1     -33.586   6.303   5.033  1.00 20.00     0.019 A 
HETATM    7  C7  UNL     1     -34.504   5.421   4.487  1.00 20.00     0.113 A 
HETATM    8  N8  UNL     1     -34.966   5.539   6.681  1.00 20.00    -0.140 NA
HETATM    9  O9  UNL     1     -35.330   4.965   5.469  1.00 20.00    -0.213 OA
ENDROOT
TORSDOF 0
ENDMDL
MODEL 9
REMARK VINA RESULT:      -4.3     11.668     12.388
REMARK  0 active torsions:
REMARK  status: ('A' for Active; 'I' for Inactive)
ROOT
HETATM    1  C1  UNL     1     -34.576  16.937  -2.330  1.00 20.00     0.001 A 
HETATM    2  C2  UNL     1     -35.955  16.878  -2.558  1.00 20.00     0.003 A 
HETATM    3  C3  UNL     1     -33.730  15.894  -2.730  1.00 20.00     0.016 A 
HETATM    4  C4  UNL     1     -36.540  15.776  -3.190  1.00 20.00     0.040 A 
HETATM    5  C5  UNL     1     -33.864  13.561  -3.912  1.00 20.00     0.161 A 
HETATM    6  C6  UNL     1     -34.302  14.783  -3.366  1.00 20.00     0.019 A 
HETATM    7  C7  UNL     1     -35.671  14.760  -3.574  1.00 20.00     0.113 A 
HETATM    8  N8  UNL     1     -34.869  12.839  -4.415  1.00 20.00    -0.140 NA
HETATM    9  O9  UNL     1     -36.012  13.599  -4.199  1.00 20.00    -0.213 OA
ENDROOT
TORSDOF 0
ENDMDL
