MODEL 1
REMARK VINA RESULT:      -5.2      0.000      0.000
REMARK  0 active torsions:
REMARK  status: ('A' for Active; 'I' for Inactive)
ROOT
HETATM    1  C1  UNL     1     -35.181   4.894   5.965  1.00 20.00     0.002 A 
HETATM    2  C2  UNL     1     -34.346   5.872   6.505  1.00 20.00     0.002 A 
HETATM    3  C3  UNL     1     -35.163   4.641   4.593  1.00 20.00     0.025 A 
HETATM    4  C4  UNL     1     -33.492   6.598   5.673  1.00 20.00     0.025 A 
HETATM    5  C5  UNL     1     -34.310   5.366   3.761  1.00 20.00     0.055 A 
HETATM    6  C6  UNL     1     -33.475   6.344   4.302  1.00 20.00     0.055 A 
HETATM    7 CL7  UNL     1     -34.332   5.006   2.071  1.00 20.00    -0.083 Cl
HETATM    8 CL8  UNL     1     -32.395   7.276   3.325  1.00 20.00    -0.083 Cl
ENDROOT
TORSDOF 0
ENDMDL
MODEL 2
REMARK VINA RESULT:      -5.2      0.017      2.353
REMARK  0 active torsions:
REMARK  status: ('A' for Active; 'I' for Inactive)
ROOT
HETATM    1  C1  UNL     1     -34.363   5.857   6.501  1.00 20.00     0.002 A 
HETATM    2  C2  UNL     1     -35.194   4.878   5.955  1.00 20.00     0.002 A 
HETATM    3  C3  UNL     1     -33.507   6.585   5.676  1.00 20.00     0.025 A 
HETATM    4  C4  UNL     1     -35.167   4.627   4.583  1.00 20.00     0.025 A 
HETATM    5  C5  UNL     1     -33.479   6.335   4.304  1.00 20.00     0.055 A 
HETATM    6  C6  UNL     1     -34.310   5.356   3.758  1.00 20.00     0.055 A 
HETATM    7 CL7  UNL     1     -32.397   7.269   3.334  1.00 20.00    -0.083 Cl
HETATM    8 CL8  UNL     1     -34.323   4.998   2.067  1.00 20.00    -0.083 Cl
ENDROOT
TORSDOF 0
ENDMDL
MODEL 3
REMARK VINA RESULT:      -5.2      1.305      2.603
REMARK  0 active torsions:
REMARK  status: ('A' for Active; 'I' for Inactive)
ROOT
HETATM    1  C1  UNL     1     -35.279   4.311   5.842  1.00 20.00     0.002 A 
HETATM    2  C2  UNL     1     -35.186   4.224   4.453  1.00 20.00     0.002 A 
HETATM    3  C3  UNL     1     -34.618   5.332   6.524  1.00 20.00     0.025 A 
HETATM    4  C4  UNL     1     -34.431   5.159   3.745  1.00 20.00     0.025 A 
HETATM    5  C5  UNL     1     -33.862   6.267   5.816  1.00 20.00     0.055 A 
HETATM    6  C6  UNL     1     -33.769   6.181   4.427  1.00 20.00     0.055 A 
HETATM    7 CL7  UNL     1     -33.065   7.509   6.716  1.00 20.00    -0.083 Cl
HETATM    8 CL8  UNL     1     -32.849   7.308   3.494  1.00 20.00    -0.083 Cl
ENDROOT
TORSDOF 0
ENDMDL
MODEL 4
REMARK VINA RESULT:      -5.1      1.301      2.149
REMARK  0 active torsions:
REMARK  status: ('A' for Active; 'I' for Inactive)
ROOT
HETATM    1  C1  UNL     1     -35.186   4.230   4.445  1.00 20.00     0.002 A 
HETATM    2  C2  UNL     1     -35.282   4.316   5.834  1.00 20.00     0.002 A 
HETATM    3  C3  UNL     1     -34.427   5.162   3.738  1.00 20.00     0.025 A 
HETATM    4  C4  UNL     1     -34.618   5.336   6.516  1.00 20.00     0.025 A 
HETATM    5  C5  UNL     1     -33.763   6.182   4.420  1.00 20.00     0.055 A 
HETATM    6  C6  UNL     1     -33.859   6.269   5.809  1.00 20.00     0.055 A 
HETATM    7 CL7  UNL     1     -32.838   7.307   3.490  1.00 20.00    -0.083 Cl
HETATM    8 CL8  UNL     1     -33.061   7.508   6.712  1.00 20.00    -0.083 Cl
ENDROOT
TORSDOF 0
ENDMDL
MODEL 5
REMARK VINA RESULT:      -4.4      2.243      2.876
REMARK  0 active torsions:
REMARK  status: ('A' for Active; 'I' for Inactive)
ROOT
HETATM    1  C1  UNL     1     -34.179   5.175   2.891  1.00 20.00     0.002 A 
HETATM    2  C2  UNL     1     -33.280   6.239   2.971  1.00 20.00     0.002 A 
HETATM    3  C3  UNL     1     -34.825   4.720   4.041  1.00 20.00     0.025 A 
HETATM    4  C4  UNL     1     -33.026   6.847   4.200  1.00 20.00     0.025 A 
HETATM    5  C5  UNL     1     -34.572   5.328   5.270  1.00 20.00     0.055 A 
HETATM    6  C6  UNL     1     -33.673   6.392   5.350  1.00 20.00     0.055 A 
HETATM    7 CL7  UNL     1     -35.403   4.720   6.659  1.00 20.00    -0.083 Cl
HETATM    8 CL8  UNL     1     -33.316   7.187   6.843  1.00 20.00    -0.083 Cl
ENDROOT
TORSDOF 0
ENDMDL
MODEL 6
REMARK VINA RESULT:      -4.4      2.235      3.671
REMARK  0 active torsions:
REMARK  status: ('A' for Active; 'I' for Inactive)
ROOT
HETATM    1  C1  UNL     1     -33.291   6.267   2.935  1.00 20.00     0.002 A 
HETATM    2  C2  UNL     1     -34.208   5.219   2.851  1.00 20.00     0.002 A 
HETATM    3  C3  UNL     1     -33.015   6.856   4.169  1.00 20.00     0.025 A 
HETATM    4  C4  UNL     1     -34.851   4.761   4.002  1.00 20.00     0.025 A 
HETATM    5  C5  UNL     1     -33.657   6.398   5.320  1.00 20.00     0.055 A 
HETATM    6  C6  UNL     1     -34.574   5.351   5.236  1.00 20.00     0.055 A 
HETATM    7 CL7  UNL     1     -33.273   7.168   6.819  1.00 20.00    -0.083 Cl
HETATM    8 CL8  UNL     1     -35.402   4.738   6.624  1.00 20.00    -0.083 Cl
ENDROOT
TORSDOF 0
ENDMDL
MODEL 7
REMARK VINA RESULT:      -3.9     12.804     13.602
REMARK  0 active torsions:
REMARK  status: ('A' for Active; 'I' for Inactive)
ROOT
HETATM    1  C1  UNL     1     -33.593  13.809  -3.832  1.00 20.00     0.002 A 
HETATM    2  C2  UNL     1     -33.023  15.062  -3.611  1.00 20.00     0.002 A 
HETATM    3  C3  UNL     1     -34.369  13.586  -4.969  1.00 20.00     0.025 A 
HETATM    4  C4  UNL     1     -33.229  16.094  -4.527  1.00 20.00     0.025 A 
HETATM    5  C5  UNL     1     -34.576  14.617  -5.886  1.00 20.00     0.055 A 
HETATM    6  C6  UNL     1     -34.006  15.870  -5.664  1.00 20.00     0.055 A 
HETATM    7 CL7  UNL     1     -35.547  14.280  -7.275  1.00 20.00    -0.083 Cl
HETATM    8 CL8  UNL     1     -34.225  17.188  -6.761  1.00 20.00    -0.083 Cl
ENDROOT
TORSDOF 0
ENDMDL
MODEL 8
REMARK VINA RESULT:      -3.9     12.815     13.800
REMARK  0 active torsions:
REMARK  status: ('A' for Active; 'I' for Inactive)
ROOT
HETATM    1  C1  UNL     1     -33.066  15.081  -3.610  1.00 20.00     0.002 A 
HETATM    2  C2  UNL     1     -33.632  13.824  -3.825  1.00 20.00     0.002 A 
HETATM    3  C3  UNL     1     -33.257  16.102  -4.541  1.00 20.00     0.025 A 
HETATM    4  C4  UNL     1     -34.389  13.588  -4.973  1.00 20.00     0.025 A 
HETATM    5  C5  UNL     1     -34.013  15.866  -5.689  1.00 20.00     0.055 A 
HETATM    6  C6  UNL     1     -34.579  14.609  -5.905  1.00 20.00     0.055 A 
HETATM    7 CL7  UNL     1     -34.214  17.169  -6.806  1.00 20.00    -0.083 Cl
HETATM    8 CL8  UNL     1     -35.526  14.254  -7.307  1.00 20.00    -0.083 Cl
ENDROOT
TORSDOF 0
ENDMDL
MODEL 9
REMARK VINA RESULT:      -3.8     12.321     13.325
REMARK  0 active torsions:
REMARK  status: ('A' for Active; 'I' for Inactive)
ROOT
HETATM    1  C1  UNL     1     -34.831  13.819  -5.798  1.00 20.00     0.002 A 
HETATM    2  C2  UNL     1     -34.928  13.332  -4.494  1.00 20.00     0.002 A 
HETATM    3  C3  UNL     1     -34.368  15.115  -6.026  1.00 20.00     0.025 A 
HETATM    4  C4  UNL     1     -34.562  14.142  -3.418  1.00 20.00     0.025 A 
HETATM    5  C5  UNL     1     -34.002  15.925  -4.951  1.00 20.00     0.055 A 
HETATM    6  C6  UNL     1     -34.099  15.438  -3.648  1.00 20.00     0.055 A 
HETATM    7 CL7  UNL     1     -33.436  17.521  -5.297  1.00 20.00    -0.083 Cl
HETATM    8 CL8  UNL     1     -33.662  16.391  -2.273  1.00 20.00    -0.083 Cl
ENDROOT
TORSDOF 0
ENDMDL
