MODEL 1
REMARK VINA RESULT:      -3.9      0.000      0.000
REMARK  0 active torsions:
REMARK  status: ('A' for Active; 'I' for Inactive)
ROOT
HETATM    1  C1  UNL     1     -34.641   5.474   6.336  1.00 20.00     0.019 A 
HETATM    2  C2  UNL     1     -35.216   4.647   5.339  1.00 20.00     0.019 A 
HETATM    3  C3  UNL     1     -33.759   6.324   5.705  1.00 20.00     0.090 A 
HETATM    4  C4  UNL     1     -34.668   5.016   4.131  1.00 20.00     0.090 A 
HETATM    5  C5  UNL     1     -32.996   6.706   3.355  1.00 20.00     0.154 C 
HETATM    6  N6  UNL     1     -33.784   6.036   4.366  1.00 20.00    -0.371 N 
ENDROOT
TORSDOF 0
ENDMDL
MODEL 2
REMARK VINA RESULT:      -3.9      0.009      1.530
REMARK  0 active torsions:
REMARK  status: ('A' for Active; 'I' for Inactive)
ROOT
HETATM    1  C1  UNL     1     -35.219   4.639   5.338  1.00 20.00     0.019 A 
HETATM    2  C2  UNL     1     -34.645   5.465   6.337  1.00 20.00     0.019 A 
HETATM    3  C3  UNL     1     -34.671   5.012   4.131  1.00 20.00     0.090 A 
HETATM    4  C4  UNL     1     -33.764   6.316   5.709  1.00 20.00     0.090 A 
HETATM    5  C5  UNL     1     -33.004   6.707   3.359  1.00 20.00     0.154 C 
HETATM    6  N6  UNL     1     -33.788   6.032   4.368  1.00 20.00    -0.371 N 
ENDROOT
TORSDOF 0
ENDMDL
MODEL 3
REMARK VINA RESULT:      -3.8      1.029      2.041
REMARK  0 active torsions:
REMARK  status: ('A' for Active; 'I' for Inactive)
ROOT
HETATM    1  C1  UNL     1     -35.219   4.443   4.770  1.00 20.00     0.019 A 
HETATM    2  C2  UNL     1     -34.717   5.249   3.719  1.00 20.00     0.019 A 
HETATM    3  C3  UNL     1     -34.840   5.031   5.957  1.00 20.00     0.090 A 
HETATM    4  C4  UNL     1     -34.047   6.305   4.295  1.00 20.00     0.090 A 
HETATM    5  C5  UNL     1     -33.550   7.066   6.624  1.00 20.00     0.154 C 
HETATM    6  N6  UNL     1     -34.128   6.163   5.655  1.00 20.00    -0.371 N 
ENDROOT
TORSDOF 0
ENDMDL
MODEL 4
REMARK VINA RESULT:      -3.8      1.025      2.063
REMARK  0 active torsions:
REMARK  status: ('A' for Active; 'I' for Inactive)
ROOT
HETATM    1  C1  UNL     1     -34.716   5.282   3.727  1.00 20.00     0.019 A 
HETATM    2  C2  UNL     1     -35.218   4.480   4.782  1.00 20.00     0.019 A 
HETATM    3  C3  UNL     1     -34.030   6.331   4.299  1.00 20.00     0.090 A 
HETATM    4  C4  UNL     1     -34.825   5.064   5.965  1.00 20.00     0.090 A 
HETATM    5  C5  UNL     1     -33.512   7.087   6.625  1.00 20.00     0.154 C 
HETATM    6  N6  UNL     1     -34.104   6.188   5.660  1.00 20.00    -0.371 N 
ENDROOT
TORSDOF 0
ENDMDL
MODEL 5
REMARK VINA RESULT:      -3.5      0.881      2.448
REMARK  0 active torsions:
REMARK  status: ('A' for Active; 'I' for Inactive)
ROOT
HETATM    1  C1  UNL     1     -33.229   6.138   3.061  1.00 20.00     0.019 A 
HETATM    2  C2  UNL     1     -34.403   5.374   2.849  1.00 20.00     0.019 A 
HETATM    3  C3  UNL     1     -33.132   6.376   4.415  1.00 20.00     0.090 A 
HETATM    4  C4  UNL     1     -34.987   5.167   4.079  1.00 20.00     0.090 A 
HETATM    5  C5  UNL     1     -34.475   5.800   6.443  1.00 20.00     0.154 C 
HETATM    6  N6  UNL     1     -34.206   5.781   5.023  1.00 20.00    -0.371 N 
ENDROOT
TORSDOF 0
ENDMDL
MODEL 6
REMARK VINA RESULT:      -3.4      0.877      2.803
REMARK  0 active torsions:
REMARK  status: ('A' for Active; 'I' for Inactive)
ROOT
HETATM    1  C1  UNL     1     -34.291   5.389   2.847  1.00 20.00     0.019 A 
HETATM    2  C2  UNL     1     -33.150   6.189   3.104  1.00 20.00     0.019 A 
HETATM    3  C3  UNL     1     -34.915   5.162   4.054  1.00 20.00     0.090 A 
HETATM    4  C4  UNL     1     -33.112   6.426   4.460  1.00 20.00     0.090 A 
HETATM    5  C5  UNL     1     -34.511   5.802   6.436  1.00 20.00     0.154 C 
HETATM    6  N6  UNL     1     -34.189   5.797   5.027  1.00 20.00    -0.371 N 
ENDROOT
TORSDOF 0
ENDMDL
MODEL 7
REMARK VINA RESULT:      -3.0      9.109      9.904
REMARK  0 active torsions:
REMARK  status: ('A' for Active; 'I' for Inactive)
ROOT
HETATM    1  C1  UNL     1     -40.706   6.177  -0.414  1.00 20.00     0.019 A 
HETATM    2  C2  UNL     1     -41.411   6.943  -1.374  1.00 20.00     0.019 A 
HETATM    3  C3  UNL     1     -40.835   4.852  -0.769  1.00 20.00     0.090 A 
HETATM    4  C4  UNL     1     -41.950   6.064  -2.287  1.00 20.00     0.090 A 
HETATM    5  C5  UNL     1     -41.962   3.583  -2.605  1.00 20.00     0.154 C 
HETATM    6  N6  UNL     1     -41.593   4.795  -1.909  1.00 20.00    -0.371 N 
ENDROOT
TORSDOF 0
ENDMDL
MODEL 8
REMARK VINA RESULT:      -3.0      9.133      9.973
REMARK  0 active torsions:
REMARK  status: ('A' for Active; 'I' for Inactive)
ROOT
HETATM    1  C1  UNL     1     -41.454   6.916  -1.405  1.00 20.00     0.019 A 
HETATM    2  C2  UNL     1     -40.722   6.170  -0.448  1.00 20.00     0.019 A 
HETATM    3  C3  UNL     1     -41.985   6.020  -2.306  1.00 20.00     0.090 A 
HETATM    4  C4  UNL     1     -40.828   4.841  -0.794  1.00 20.00     0.090 A 
HETATM    5  C5  UNL     1     -41.947   3.539  -2.612  1.00 20.00     0.154 C 
HETATM    6  N6  UNL     1     -41.598   4.762  -1.925  1.00 20.00    -0.371 N 
ENDROOT
TORSDOF 0
ENDMDL
MODEL 9
REMARK VINA RESULT:      -2.9      1.134      2.324
REMARK  0 active torsions:
REMARK  status: ('A' for Active; 'I' for Inactive)
ROOT
HETATM    1  C1  UNL     1     -33.756   6.832   6.351  1.00 20.00     0.019 A 
HETATM    2  C2  UNL     1     -33.354   6.934   4.996  1.00 20.00     0.019 A 
HETATM    3  C3  UNL     1     -34.475   5.664   6.480  1.00 20.00     0.090 A 
HETATM    4  C4  UNL     1     -33.840   5.825   4.339  1.00 20.00     0.090 A 
HETATM    5  C5  UNL     1     -35.184   3.810   4.959  1.00 20.00     0.154 C 
HETATM    6  N6  UNL     1     -34.520   5.061   5.250  1.00 20.00    -0.371 N 
ENDROOT
TORSDOF 0
ENDMDL
