MODEL 1
REMARK VINA RESULT:      -6.5      0.000      0.000
REMARK  1 active torsions:
REMARK  status: ('A' for Active; 'I' for Inactive)
REMARK    1  A    between atoms: C1_1  and  C8_8 
ROOT
HETATM    1  C1  UNL     1     -33.011   7.040   3.188  1.00 20.00    -0.067 C 
HETATM    2  C2  UNL     1     -32.412   7.699   2.382  1.00 20.00    -0.105 C 
HETATM    3  C9  UNL     1     -31.684   8.502   1.400  1.00 20.00     0.112 C 
ENDROOT
BRANCH   1   4
HETATM    4  C8  UNL     1     -33.725   6.257   4.147  1.00 20.00     0.017 A 
HETATM    5  C6  UNL     1     -34.516   5.189   3.724  1.00 20.00     0.020 A 
HETATM    6  C4  UNL     1     -35.214   4.425   4.659  1.00 20.00     0.001 A 
HETATM    7  C3  UNL     1     -35.119   4.728   6.018  1.00 20.00     0.000 A 
HETATM    8  C5  UNL     1     -34.327   5.796   6.441  1.00 20.00     0.001 A 
HETATM    9  C7  UNL     1     -33.630   6.560   5.505  1.00 20.00     0.020 A 
ENDBRANCH   1   4
TORSDOF 1
ENDMDL
MODEL 2
REMARK VINA RESULT:      -4.7     11.377     11.918
REMARK  1 active torsions:
REMARK  status: ('A' for Active; 'I' for Inactive)
REMARK    1  A    between atoms: C1_1  and  C8_8 
ROOT
HETATM    1  C1  UNL     1     -34.536  16.268  -1.649  1.00 20.00    -0.067 C 
HETATM    2  C2  UNL     1     -34.357  17.053  -0.757  1.00 20.00    -0.105 C 
HETATM    3  C9  UNL     1     -34.138  18.007   0.330  1.00 20.00     0.112 C 
ENDROOT
BRANCH   1   4
HETATM    4  C8  UNL     1     -34.749  15.334  -2.709  1.00 20.00     0.017 A 
HETATM    5  C6  UNL     1     -36.029  15.158  -3.236  1.00 20.00     0.020 A 
HETATM    6  C4  UNL     1     -36.237  14.246  -4.270  1.00 20.00     0.001 A 
HETATM    7  C3  UNL     1     -35.167  13.509  -4.778  1.00 20.00     0.000 A 
HETATM    8  C5  UNL     1     -33.887  13.685  -4.250  1.00 20.00     0.001 A 
HETATM    9  C7  UNL     1     -33.679  14.598  -3.215  1.00 20.00     0.020 A 
ENDBRANCH   1   4
TORSDOF 1
ENDMDL
MODEL 3
REMARK VINA RESULT:      -4.7     11.378     11.944
REMARK  1 active torsions:
REMARK  status: ('A' for Active; 'I' for Inactive)
REMARK    1  A    between atoms: C1_1  and  C8_8 
ROOT
HETATM    1  C1  UNL     1     -34.517  16.283  -1.648  1.00 20.00    -0.067 C 
HETATM    2  C2  UNL     1     -34.333  17.071  -0.760  1.00 20.00    -0.105 C 
HETATM    3  C9  UNL     1     -34.107  18.030   0.322  1.00 20.00     0.112 C 
ENDROOT
BRANCH   1   4
HETATM    4  C8  UNL     1     -34.738  15.345  -2.702  1.00 20.00     0.017 A 
HETATM    5  C6  UNL     1     -33.671  14.604  -3.212  1.00 20.00     0.020 A 
HETATM    6  C4  UNL     1     -33.887  13.689  -4.241  1.00 20.00     0.001 A 
HETATM    7  C3  UNL     1     -35.170  13.513  -4.762  1.00 20.00     0.000 A 
HETATM    8  C5  UNL     1     -36.236  14.253  -4.252  1.00 20.00     0.001 A 
HETATM    9  C7  UNL     1     -36.021  15.170  -3.222  1.00 20.00     0.020 A 
ENDBRANCH   1   4
TORSDOF 1
ENDMDL
MODEL 4
REMARK VINA RESULT:      -4.7      9.381     10.749
REMARK  1 active torsions:
REMARK  status: ('A' for Active; 'I' for Inactive)
REMARK    1  A    between atoms: C1_1  and  C8_8 
ROOT
HETATM    1  C1  UNL     1     -41.717   3.431  -2.615  1.00 20.00    -0.067 C 
HETATM    2  C2  UNL     1     -41.839   2.351  -3.128  1.00 20.00    -0.105 C 
HETATM    3  C9  UNL     1     -41.985   1.037  -3.753  1.00 20.00     0.112 C 
ENDROOT
BRANCH   1   4
HETATM    4  C8  UNL     1     -41.571   4.715  -2.006  1.00 20.00     0.017 A 
HETATM    5  C6  UNL     1     -40.800   4.855  -0.852  1.00 20.00     0.020 A 
HETATM    6  C4  UNL     1     -40.658   6.108  -0.257  1.00 20.00     0.001 A 
HETATM    7  C3  UNL     1     -41.286   7.222  -0.816  1.00 20.00     0.000 A 
HETATM    8  C5  UNL     1     -42.056   7.081  -1.970  1.00 20.00     0.001 A 
HETATM    9  C7  UNL     1     -42.199   5.827  -2.565  1.00 20.00     0.020 A 
ENDBRANCH   1   4
TORSDOF 1
ENDMDL
MODEL 5
REMARK VINA RESULT:      -4.7      9.381     10.689
REMARK  1 active torsions:
REMARK  status: ('A' for Active; 'I' for Inactive)
REMARK    1  A    between atoms: C1_1  and  C8_8 
ROOT
HETATM    1  C1  UNL     1     -41.714   3.419  -2.612  1.00 20.00    -0.067 C 
HETATM    2  C2  UNL     1     -41.835   2.340  -3.124  1.00 20.00    -0.105 C 
HETATM    3  C9  UNL     1     -41.981   1.025  -3.750  1.00 20.00     0.112 C 
ENDROOT
BRANCH   1   4
HETATM    4  C8  UNL     1     -41.571   4.704  -2.004  1.00 20.00     0.017 A 
HETATM    5  C6  UNL     1     -42.201   5.816  -2.566  1.00 20.00     0.020 A 
HETATM    6  C4  UNL     1     -42.060   7.070  -1.973  1.00 20.00     0.001 A 
HETATM    7  C3  UNL     1     -41.291   7.214  -0.818  1.00 20.00     0.000 A 
HETATM    8  C5  UNL     1     -40.662   6.103  -0.256  1.00 20.00     0.001 A 
HETATM    9  C7  UNL     1     -40.802   4.848  -0.850  1.00 20.00     0.020 A 
ENDBRANCH   1   4
TORSDOF 1
ENDMDL
MODEL 6
REMARK VINA RESULT:      -4.6     11.135     12.421
REMARK  1 active torsions:
REMARK  status: ('A' for Active; 'I' for Inactive)
REMARK    1  A    between atoms: C1_1  and  C8_8 
ROOT
HETATM    1  C1  UNL     1     -34.745  15.976  -2.178  1.00 20.00    -0.067 C 
HETATM    2  C2  UNL     1     -34.705  16.561  -1.130  1.00 20.00    -0.105 C 
HETATM    3  C9  UNL     1     -34.657  17.273   0.147  1.00 20.00     0.112 C 
ENDROOT
BRANCH   1   4
HETATM    4  C8  UNL     1     -34.794  15.281  -3.426  1.00 20.00     0.017 A 
HETATM    5  C6  UNL     1     -34.380  13.951  -3.500  1.00 20.00     0.020 A 
HETATM    6  C4  UNL     1     -34.427  13.273  -4.718  1.00 20.00     0.001 A 
HETATM    7  C3  UNL     1     -34.889  13.924  -5.862  1.00 20.00     0.000 A 
HETATM    8  C5  UNL     1     -35.303  15.254  -5.788  1.00 20.00     0.001 A 
HETATM    9  C7  UNL     1     -35.256  15.933  -4.569  1.00 20.00     0.020 A 
ENDBRANCH   1   4
TORSDOF 1
ENDMDL
MODEL 7
REMARK VINA RESULT:      -4.6     11.136     12.424
REMARK  1 active torsions:
REMARK  status: ('A' for Active; 'I' for Inactive)
REMARK    1  A    between atoms: C1_1  and  C8_8 
ROOT
HETATM    1  C1  UNL     1     -34.741  15.979  -2.177  1.00 20.00    -0.067 C 
HETATM    2  C2  UNL     1     -34.700  16.564  -1.129  1.00 20.00    -0.105 C 
HETATM    3  C9  UNL     1     -34.652  17.277   0.147  1.00 20.00     0.112 C 
ENDROOT
BRANCH   1   4
HETATM    4  C8  UNL     1     -34.790  15.285  -3.425  1.00 20.00     0.017 A 
HETATM    5  C6  UNL     1     -35.250  15.937  -4.569  1.00 20.00     0.020 A 
HETATM    6  C4  UNL     1     -35.298  15.259  -5.786  1.00 20.00     0.001 A 
HETATM    7  C3  UNL     1     -34.885  13.928  -5.861  1.00 20.00     0.000 A 
HETATM    8  C5  UNL     1     -34.426  13.276  -4.717  1.00 20.00     0.001 A 
HETATM    9  C7  UNL     1     -34.378  13.954  -3.499  1.00 20.00     0.020 A 
ENDBRANCH   1   4
TORSDOF 1
ENDMDL
MODEL 8
REMARK VINA RESULT:      -4.3     11.666     12.408
REMARK  1 active torsions:
REMARK  status: ('A' for Active; 'I' for Inactive)
REMARK    1  A    between atoms: C1_1  and  C8_8 
ROOT
HETATM    1  C1  UNL     1     -34.578  16.402  -1.515  1.00 20.00    -0.067 C 
HETATM    2  C2  UNL     1     -34.851  15.661  -2.420  1.00 20.00    -0.105 C 
HETATM    3  C9  UNL     1     -35.183  14.757  -3.521  1.00 20.00     0.112 C 
ENDROOT
BRANCH   1   4
HETATM    4  C8  UNL     1     -34.255  17.283  -0.438  1.00 20.00     0.017 A 
HETATM    5  C6  UNL     1     -33.110  18.078  -0.507  1.00 20.00     0.020 A 
HETATM    6  C4  UNL     1     -32.794  18.937   0.545  1.00 20.00     0.001 A 
HETATM    7  C3  UNL     1     -33.622  19.003   1.666  1.00 20.00     0.000 A 
HETATM    8  C5  UNL     1     -34.767  18.209   1.734  1.00 20.00     0.001 A 
HETATM    9  C7  UNL     1     -35.083  17.349   0.682  1.00 20.00     0.020 A 
ENDBRANCH   1   4
TORSDOF 1
ENDMDL
MODEL 9
REMARK VINA RESULT:      -4.3     11.675     12.399
REMARK  1 active torsions:
REMARK  status: ('A' for Active; 'I' for Inactive)
REMARK    1  A    between atoms: C1_1  and  C8_8 
ROOT
HETATM    1  C1  UNL     1     -34.559  16.435  -1.486  1.00 20.00    -0.067 C 
HETATM    2  C2  UNL     1     -34.822  15.701  -2.400  1.00 20.00    -0.105 C 
HETATM    3  C9  UNL     1     -35.141  14.806  -3.512  1.00 20.00     0.112 C 
ENDROOT
BRANCH   1   4
HETATM    4  C8  UNL     1     -34.245  17.308  -0.399  1.00 20.00     0.017 A 
HETATM    5  C6  UNL     1     -35.075  17.352   0.722  1.00 20.00     0.020 A 
HETATM    6  C4  UNL     1     -34.769  18.205   1.782  1.00 20.00     0.001 A 
HETATM    7  C3  UNL     1     -33.632  19.012   1.724  1.00 20.00     0.000 A 
HETATM    8  C5  UNL     1     -32.803  18.967   0.603  1.00 20.00     0.001 A 
HETATM    9  C7  UNL     1     -33.109  18.114  -0.458  1.00 20.00     0.020 A 
ENDBRANCH   1   4
TORSDOF 1
ENDMDL
