MODEL 1
REMARK VINA RESULT:      -4.7      0.000      0.000
REMARK  0 active torsions:
REMARK  status: ('A' for Active; 'I' for Inactive)
ROOT
HETATM    1  C1  UNL     1     -34.928   5.053   3.947  1.00 20.00     0.035 A 
HETATM    2  C2  UNL     1     -34.187   5.578   2.861  1.00 20.00     0.035 A 
HETATM    3  C3  UNL     1     -34.365   5.582   5.084  1.00 20.00     0.049 A 
HETATM    4  C4  UNL     1     -33.224   6.390   3.413  1.00 20.00     0.049 A 
HETATM    5  C5  UNL     1     -34.664   5.436   6.516  1.00 20.00     0.076 C 
HETATM    6  C6  UNL     1     -32.153   7.215   2.836  1.00 20.00     0.076 C 
HETATM    7  O7  UNL     1     -33.326   6.399   4.767  1.00 20.00    -0.320 OA
ENDROOT
TORSDOF 0
ENDMDL
MODEL 2
REMARK VINA RESULT:      -4.7      0.006      2.916
REMARK  0 active torsions:
REMARK  status: ('A' for Active; 'I' for Inactive)
ROOT
HETATM    1  C1  UNL     1     -34.186   5.584   2.859  1.00 20.00     0.035 A 
HETATM    2  C2  UNL     1     -34.927   5.055   3.942  1.00 20.00     0.035 A 
HETATM    3  C3  UNL     1     -33.224   6.395   3.413  1.00 20.00     0.049 A 
HETATM    4  C4  UNL     1     -34.365   5.581   5.082  1.00 20.00     0.049 A 
HETATM    5  C5  UNL     1     -32.153   7.222   2.841  1.00 20.00     0.076 C 
HETATM    6  C6  UNL     1     -34.665   5.430   6.512  1.00 20.00     0.076 C 
HETATM    7  O7  UNL     1     -33.326   6.398   4.769  1.00 20.00    -0.320 OA
ENDROOT
TORSDOF 0
ENDMDL
MODEL 3
REMARK VINA RESULT:      -4.6      1.385      2.105
REMARK  0 active torsions:
REMARK  status: ('A' for Active; 'I' for Inactive)
ROOT
HETATM    1  C1  UNL     1     -34.792   5.155   6.329  1.00 20.00     0.035 A 
HETATM    2  C2  UNL     1     -35.054   4.563   5.071  1.00 20.00     0.035 A 
HETATM    3  C3  UNL     1     -34.067   6.295   6.072  1.00 20.00     0.049 A 
HETATM    4  C4  UNL     1     -34.470   5.383   4.134  1.00 20.00     0.049 A 
HETATM    5  C5  UNL     1     -33.494   7.339   6.932  1.00 20.00     0.076 C 
HETATM    6  C6  UNL     1     -34.381   5.330   2.668  1.00 20.00     0.076 C 
HETATM    7  O7  UNL     1     -33.867   6.441   4.735  1.00 20.00    -0.320 OA
ENDROOT
TORSDOF 0
ENDMDL
MODEL 4
REMARK VINA RESULT:      -4.6      1.386      2.838
REMARK  0 active torsions:
REMARK  status: ('A' for Active; 'I' for Inactive)
ROOT
HETATM    1  C1  UNL     1     -35.072   4.568   5.032  1.00 20.00     0.035 A 
HETATM    2  C2  UNL     1     -34.816   5.153   6.294  1.00 20.00     0.035 A 
HETATM    3  C3  UNL     1     -34.472   5.384   4.102  1.00 20.00     0.049 A 
HETATM    4  C4  UNL     1     -34.077   6.287   6.047  1.00 20.00     0.049 A 
HETATM    5  C5  UNL     1     -34.368   5.337   2.637  1.00 20.00     0.076 C 
HETATM    6  C6  UNL     1     -33.502   7.322   6.917  1.00 20.00     0.076 C 
HETATM    7  O7  UNL     1     -33.862   6.435   4.714  1.00 20.00    -0.320 OA
ENDROOT
TORSDOF 0
ENDMDL
MODEL 5
REMARK VINA RESULT:      -4.0      1.249      3.405
REMARK  0 active torsions:
REMARK  status: ('A' for Active; 'I' for Inactive)
ROOT
HETATM    1  C1  UNL     1     -33.319   7.092   5.514  1.00 20.00     0.035 A 
HETATM    2  C2  UNL     1     -34.115   6.255   6.331  1.00 20.00     0.035 A 
HETATM    3  C3  UNL     1     -33.239   6.468   4.291  1.00 20.00     0.049 A 
HETATM    4  C4  UNL     1     -34.465   5.179   5.550  1.00 20.00     0.049 A 
HETATM    5  C5  UNL     1     -32.572   6.811   3.027  1.00 20.00     0.076 C 
HETATM    6  C6  UNL     1     -35.270   3.975   5.799  1.00 20.00     0.076 C 
HETATM    7  O7  UNL     1     -33.936   5.301   4.305  1.00 20.00    -0.320 OA
ENDROOT
TORSDOF 0
ENDMDL
MODEL 6
REMARK VINA RESULT:      -4.0      1.249      1.859
REMARK  0 active torsions:
REMARK  status: ('A' for Active; 'I' for Inactive)
ROOT
HETATM    1  C1  UNL     1     -34.125   6.230   6.323  1.00 20.00     0.035 A 
HETATM    2  C2  UNL     1     -33.338   7.089   5.519  1.00 20.00     0.035 A 
HETATM    3  C3  UNL     1     -34.469   5.166   5.523  1.00 20.00     0.049 A 
HETATM    4  C4  UNL     1     -33.258   6.489   4.284  1.00 20.00     0.049 A 
HETATM    5  C5  UNL     1     -35.262   3.950   5.751  1.00 20.00     0.076 C 
HETATM    6  C6  UNL     1     -32.597   6.862   3.026  1.00 20.00     0.076 C 
HETATM    7  O7  UNL     1     -33.943   5.316   4.278  1.00 20.00    -0.320 OA
ENDROOT
TORSDOF 0
ENDMDL
MODEL 7
REMARK VINA RESULT:      -3.5     11.422     12.714
REMARK  0 active torsions:
REMARK  status: ('A' for Active; 'I' for Inactive)
ROOT
HETATM    1  C1  UNL     1     -34.434  13.382  -4.932  1.00 20.00     0.035 A 
HETATM    2  C2  UNL     1     -34.415  13.678  -3.549  1.00 20.00     0.035 A 
HETATM    3  C3  UNL     1     -34.469  14.593  -5.582  1.00 20.00     0.049 A 
HETATM    4  C4  UNL     1     -34.440  15.049  -3.451  1.00 20.00     0.049 A 
HETATM    5  C5  UNL     1     -34.501  14.974  -7.001  1.00 20.00     0.076 C 
HETATM    6  C6  UNL     1     -34.438  15.976  -2.311  1.00 20.00     0.076 C 
HETATM    7  O7  UNL     1     -34.473  15.615  -4.685  1.00 20.00    -0.320 OA
ENDROOT
TORSDOF 0
ENDMDL
MODEL 8
REMARK VINA RESULT:      -3.5      9.181     10.173
REMARK  0 active torsions:
REMARK  status: ('A' for Active; 'I' for Inactive)
ROOT
HETATM    1  C1  UNL     1     -40.828   5.930  -0.737  1.00 20.00     0.035 A 
HETATM    2  C2  UNL     1     -40.656   4.545  -0.970  1.00 20.00     0.035 A 
HETATM    3  C3  UNL     1     -41.696   6.375  -1.706  1.00 20.00     0.049 A 
HETATM    4  C4  UNL     1     -41.431   4.242  -2.064  1.00 20.00     0.049 A 
HETATM    5  C5  UNL     1     -42.272   7.691  -2.013  1.00 20.00     0.076 C 
HETATM    6  C6  UNL     1     -41.688   2.996  -2.801  1.00 20.00     0.076 C 
HETATM    7  O7  UNL     1     -42.069   5.351  -2.519  1.00 20.00    -0.320 OA
ENDROOT
TORSDOF 0
ENDMDL
MODEL 9
REMARK VINA RESULT:      -3.5     11.424     12.490
REMARK  0 active torsions:
REMARK  status: ('A' for Active; 'I' for Inactive)
ROOT
HETATM    1  C1  UNL     1     -34.428  13.673  -3.557  1.00 20.00     0.035 A 
HETATM    2  C2  UNL     1     -34.436  13.389  -4.943  1.00 20.00     0.035 A 
HETATM    3  C3  UNL     1     -34.456  15.043  -3.448  1.00 20.00     0.049 A 
HETATM    4  C4  UNL     1     -34.469  14.606  -5.583  1.00 20.00     0.049 A 
HETATM    5  C5  UNL     1     -34.465  15.961  -2.300  1.00 20.00     0.076 C 
HETATM    6  C6  UNL     1     -34.492  14.998  -6.999  1.00 20.00     0.076 C 
HETATM    7  O7  UNL     1     -34.482  15.620  -4.679  1.00 20.00    -0.320 OA
ENDROOT
TORSDOF 0
ENDMDL
