MODEL 1
REMARK VINA RESULT:      -5.5      0.000      0.000
REMARK  1 active torsions:
REMARK  status: ('A' for Active; 'I' for Inactive)
REMARK    1  A    between atoms: C4_4  and  C7_7 
ROOT
HETATM    1  C1  UNL     1     -35.158   4.119   5.954  1.00 20.00     0.006 A 
HETATM    2  C2  UNL     1     -35.223   4.145   4.561  1.00 20.00     0.043 A 
HETATM    3  C3  UNL     1     -34.557   5.171   6.643  1.00 20.00     0.043 A 
HETATM    4  C4  UNL     1     -34.085   6.276   4.547  1.00 20.00     0.029 A 
HETATM    5  C5  UNL     1     -34.687   5.223   3.857  1.00 20.00     0.126 A 
HETATM    6  C6  UNL     1     -34.020   6.250   5.940  1.00 20.00     0.126 A 
HETATM    7  F8  UNL     1     -34.754   5.239   2.519  1.00 20.00    -0.205 F 
HETATM    8  F9  UNL     1     -33.443   7.256   6.612  1.00 20.00    -0.205 F 
ENDROOT
BRANCH   4   9
HETATM    9  C7  UNL     1     -33.511   7.428   3.795  1.00 20.00     0.130 C 
HETATM   10 BR10 UNL     1     -31.794   6.920   3.034  1.00 20.00    -0.091 Br
ENDBRANCH   4   9
TORSDOF 1
ENDMDL
MODEL 2
REMARK VINA RESULT:      -5.5      0.021      2.616
REMARK  1 active torsions:
REMARK  status: ('A' for Active; 'I' for Inactive)
REMARK    1  A    between atoms: C4_4  and  C7_7 
ROOT
HETATM    1  C1  UNL     1     -35.177   4.138   5.962  1.00 20.00     0.006 A 
HETATM    2  C2  UNL     1     -34.579   5.194   6.650  1.00 20.00     0.043 A 
HETATM    3  C3  UNL     1     -35.232   4.158   4.568  1.00 20.00     0.043 A 
HETATM    4  C4  UNL     1     -34.093   6.287   4.551  1.00 20.00     0.029 A 
HETATM    5  C5  UNL     1     -34.037   6.269   5.945  1.00 20.00     0.126 A 
HETATM    6  C6  UNL     1     -34.691   5.232   3.863  1.00 20.00     0.126 A 
HETATM    7  F8  UNL     1     -33.465   7.278   6.615  1.00 20.00    -0.205 F 
HETATM    8  F9  UNL     1     -34.750   5.241   2.524  1.00 20.00    -0.205 F 
ENDROOT
BRANCH   4   9
HETATM    9  C7  UNL     1     -33.514   7.437   3.798  1.00 20.00     0.130 C 
HETATM   10 BR10 UNL     1     -31.794   6.922   3.047  1.00 20.00    -0.091 Br
ENDBRANCH   4   9
TORSDOF 1
ENDMDL
MODEL 3
REMARK VINA RESULT:      -4.5     12.133     12.610
REMARK  1 active torsions:
REMARK  status: ('A' for Active; 'I' for Inactive)
REMARK    1  A    between atoms: C4_4  and  C7_7 
ROOT
HETATM    1  C1  UNL     1     -35.179  13.259  -4.428  1.00 20.00     0.006 A 
HETATM    2  C2  UNL     1     -36.115  14.226  -4.064  1.00 20.00     0.043 A 
HETATM    3  C3  UNL     1     -33.823  13.473  -4.183  1.00 20.00     0.043 A 
HETATM    4  C4  UNL     1     -34.338  15.623  -3.210  1.00 20.00     0.029 A 
HETATM    5  C5  UNL     1     -35.695  15.409  -3.455  1.00 20.00     0.126 A 
HETATM    6  C6  UNL     1     -33.403  14.655  -3.574  1.00 20.00     0.126 A 
HETATM    7  F8  UNL     1     -36.602  16.332  -3.108  1.00 20.00    -0.205 F 
HETATM    8  F9  UNL     1     -32.098  14.852  -3.343  1.00 20.00    -0.205 F 
ENDROOT
BRANCH   4   9
HETATM    9  C7  UNL     1     -33.890  16.888  -2.558  1.00 20.00     0.130 C 
HETATM   10 BR10 UNL     1     -34.490  16.915  -0.708  1.00 20.00    -0.091 Br
ENDBRANCH   4   9
TORSDOF 1
ENDMDL
MODEL 4
REMARK VINA RESULT:      -4.5     12.141     12.655
REMARK  1 active torsions:
REMARK  status: ('A' for Active; 'I' for Inactive)
REMARK    1  A    between atoms: C4_4  and  C7_7 
ROOT
HETATM    1  C1  UNL     1     -35.175  13.259  -4.458  1.00 20.00     0.006 A 
HETATM    2  C2  UNL     1     -33.820  13.466  -4.201  1.00 20.00     0.043 A 
HETATM    3  C3  UNL     1     -36.108  14.235  -4.109  1.00 20.00     0.043 A 
HETATM    4  C4  UNL     1     -34.331  15.625  -3.245  1.00 20.00     0.029 A 
HETATM    5  C5  UNL     1     -33.398  14.649  -3.594  1.00 20.00     0.126 A 
HETATM    6  C6  UNL     1     -35.686  15.418  -3.502  1.00 20.00     0.126 A 
HETATM    7  F8  UNL     1     -32.094  14.838  -3.351  1.00 20.00    -0.205 F 
HETATM    8  F9  UNL     1     -36.590  16.350  -3.170  1.00 20.00    -0.205 F 
ENDROOT
BRANCH   4   9
HETATM    9  C7  UNL     1     -33.879  16.889  -2.596  1.00 20.00     0.130 C 
HETATM   10 BR10 UNL     1     -34.458  16.911  -0.738  1.00 20.00    -0.091 Br
ENDBRANCH   4   9
TORSDOF 1
ENDMDL
MODEL 5
REMARK VINA RESULT:      -4.3     12.384     13.764
REMARK  1 active torsions:
REMARK  status: ('A' for Active; 'I' for Inactive)
REMARK    1  A    between atoms: C4_4  and  C7_7 
ROOT
HETATM    1  C1  UNL     1     -34.817  14.582  -6.796  1.00 20.00     0.006 A 
HETATM    2  C2  UNL     1     -34.202  15.828  -6.680  1.00 20.00     0.043 A 
HETATM    3  C3  UNL     1     -34.924  13.751  -5.681  1.00 20.00     0.043 A 
HETATM    4  C4  UNL     1     -33.800  15.411  -4.335  1.00 20.00     0.029 A 
HETATM    5  C5  UNL     1     -33.693  16.243  -5.449  1.00 20.00     0.126 A 
HETATM    6  C6  UNL     1     -34.415  14.165  -4.451  1.00 20.00     0.126 A 
HETATM    7  F8  UNL     1     -33.104  17.443  -5.348  1.00 20.00    -0.205 F 
HETATM    8  F9  UNL     1     -34.522  13.359  -3.386  1.00 20.00    -0.205 F 
ENDROOT
BRANCH   4   9
HETATM    9  C7  UNL     1     -33.256  15.856  -3.019  1.00 20.00     0.130 C 
HETATM   10 BR10 UNL     1     -34.724  16.338  -1.837  1.00 20.00    -0.091 Br
ENDBRANCH   4   9
TORSDOF 1
ENDMDL
MODEL 6
REMARK VINA RESULT:      -4.3     12.370     13.726
REMARK  1 active torsions:
REMARK  status: ('A' for Active; 'I' for Inactive)
REMARK    1  A    between atoms: C4_4  and  C7_7 
ROOT
HETATM    1  C1  UNL     1     -34.804  14.550  -6.799  1.00 20.00     0.006 A 
HETATM    2  C2  UNL     1     -34.916  13.721  -5.683  1.00 20.00     0.043 A 
HETATM    3  C3  UNL     1     -34.192  15.797  -6.683  1.00 20.00     0.043 A 
HETATM    4  C4  UNL     1     -33.804  15.388  -4.334  1.00 20.00     0.029 A 
HETATM    5  C5  UNL     1     -34.416  14.140  -4.450  1.00 20.00     0.126 A 
HETATM    6  C6  UNL     1     -33.692  16.217  -5.450  1.00 20.00     0.126 A 
HETATM    7  F8  UNL     1     -34.527  13.337  -3.383  1.00 20.00    -0.205 F 
HETATM    8  F9  UNL     1     -33.106  17.417  -5.348  1.00 20.00    -0.205 F 
ENDROOT
BRANCH   4   9
HETATM    9  C7  UNL     1     -33.269  15.836  -3.015  1.00 20.00     0.130 C 
HETATM   10 BR10 UNL     1     -34.744  16.347  -1.854  1.00 20.00    -0.091 Br
ENDBRANCH   4   9
TORSDOF 1
ENDMDL
MODEL 7
REMARK VINA RESULT:      -4.3      9.713     10.864
REMARK  1 active torsions:
REMARK  status: ('A' for Active; 'I' for Inactive)
REMARK    1  A    between atoms: C4_4  and  C7_7 
ROOT
HETATM    1  C1  UNL     1     -40.689   4.768  -0.863  1.00 20.00     0.006 A 
HETATM    2  C2  UNL     1     -40.775   6.110  -0.491  1.00 20.00     0.043 A 
HETATM    3  C3  UNL     1     -41.491   4.277  -1.892  1.00 20.00     0.043 A 
HETATM    4  C4  UNL     1     -42.466   6.468  -2.179  1.00 20.00     0.029 A 
HETATM    5  C5  UNL     1     -41.664   6.960  -1.149  1.00 20.00     0.126 A 
HETATM    6  C6  UNL     1     -42.380   5.127  -2.550  1.00 20.00     0.126 A 
HETATM    7  F8  UNL     1     -41.739   8.248  -0.786  1.00 20.00    -0.205 F 
HETATM    8  F9  UNL     1     -43.147   4.645  -3.538  1.00 20.00    -0.205 F 
ENDROOT
BRANCH   4   9
HETATM    9  C7  UNL     1     -43.416   7.378  -2.883  1.00 20.00     0.130 C 
HETATM   10 BR10 UNL     1     -42.477   8.338  -4.290  1.00 20.00    -0.091 Br
ENDBRANCH   4   9
TORSDOF 1
ENDMDL
MODEL 8
REMARK VINA RESULT:      -4.3      9.727     10.595
REMARK  1 active torsions:
REMARK  status: ('A' for Active; 'I' for Inactive)
REMARK    1  A    between atoms: C4_4  and  C7_7 
ROOT
HETATM    1  C1  UNL     1     -40.672   4.752  -0.895  1.00 20.00     0.006 A 
HETATM    2  C2  UNL     1     -41.426   4.258  -1.959  1.00 20.00     0.043 A 
HETATM    3  C3  UNL     1     -40.812   6.082  -0.500  1.00 20.00     0.043 A 
HETATM    4  C4  UNL     1     -42.460   6.424  -2.232  1.00 20.00     0.029 A 
HETATM    5  C5  UNL     1     -42.321   5.093  -2.628  1.00 20.00     0.126 A 
HETATM    6  C6  UNL     1     -41.706   6.918  -1.168  1.00 20.00     0.126 A 
HETATM    7  F8  UNL     1     -43.042   4.609  -3.648  1.00 20.00    -0.205 F 
HETATM    8  F9  UNL     1     -41.833   8.194  -0.781  1.00 20.00    -0.205 F 
ENDROOT
BRANCH   4   9
HETATM    9  C7  UNL     1     -43.417   7.317  -2.947  1.00 20.00     0.130 C 
HETATM   10 BR10 UNL     1     -42.466   8.338  -4.303  1.00 20.00    -0.091 Br
ENDBRANCH   4   9
TORSDOF 1
ENDMDL
MODEL 9
REMARK VINA RESULT:      -4.3     12.479     14.051
REMARK  1 active torsions:
REMARK  status: ('A' for Active; 'I' for Inactive)
REMARK    1  A    between atoms: C4_4  and  C7_7 
ROOT
HETATM    1  C1  UNL     1     -33.157  15.272  -3.530  1.00 20.00     0.006 A 
HETATM    2  C2  UNL     1     -33.236  16.273  -4.497  1.00 20.00     0.043 A 
HETATM    3  C3  UNL     1     -33.726  14.022  -3.773  1.00 20.00     0.043 A 
HETATM    4  C4  UNL     1     -34.453  14.774  -5.950  1.00 20.00     0.029 A 
HETATM    5  C5  UNL     1     -33.883  16.025  -5.708  1.00 20.00     0.126 A 
HETATM    6  C6  UNL     1     -34.374  13.773  -4.982  1.00 20.00     0.126 A 
HETATM    7  F8  UNL     1     -33.953  16.993  -6.631  1.00 20.00    -0.205 F 
HETATM    8  F9  UNL     1     -34.918  12.569  -5.205  1.00 20.00    -0.205 F 
ENDROOT
BRANCH   4   9
HETATM    9  C7  UNL     1     -35.145  14.509  -7.244  1.00 20.00     0.130 C 
HETATM   10 BR10 UNL     1     -36.937  15.267  -7.191  1.00 20.00    -0.091 Br
ENDBRANCH   4   9
TORSDOF 1
ENDMDL
