MODEL 1
REMARK VINA RESULT:      -3.5      0.000      0.000
REMARK  1 active torsions:
REMARK  status: ('A' for Active; 'I' for Inactive)
REMARK    1  A    between atoms: C4_4  and  S7_7 
ROOT
HETATM    1  C1  UNL     1     -34.449   5.823   6.575  1.00 20.00     0.009 A 
HETATM    2  C2  UNL     1     -33.635   6.515   5.632  1.00 20.00     0.026 A 
HETATM    3  C3  UNL     1     -35.194   4.826   5.983  1.00 20.00     0.051 A 
HETATM    4  C4  UNL     1     -33.788   6.021   4.355  1.00 20.00     0.040 A 
HETATM    5  S6  UNL     1     -34.909   4.728   4.297  1.00 20.00    -0.095 SA
ENDROOT
BRANCH   4   6
HETATM    6  S7  UNL     1     -32.962   6.599   2.919  1.00 20.00    -0.127 SA
HETATM    7  C5  UNL     1     -31.579   7.494   3.674  1.00 20.00     0.096 C 
ENDBRANCH   4   6
TORSDOF 1
ENDMDL
MODEL 2
REMARK VINA RESULT:      -3.2     12.041     12.382
REMARK  1 active torsions:
REMARK  status: ('A' for Active; 'I' for Inactive)
REMARK    1  A    between atoms: C4_4  and  S7_7 
ROOT
HETATM    1  C1  UNL     1     -33.755  13.668  -4.022  1.00 20.00     0.009 A 
HETATM    2  C2  UNL     1     -33.780  14.884  -3.279  1.00 20.00     0.026 A 
HETATM    3  C3  UNL     1     -35.004  13.320  -4.487  1.00 20.00     0.051 A 
HETATM    4  C4  UNL     1     -35.047  15.419  -3.205  1.00 20.00     0.040 A 
HETATM    5  S6  UNL     1     -36.200  14.457  -4.029  1.00 20.00    -0.095 SA
ENDROOT
BRANCH   4   6
HETATM    6  S7  UNL     1     -35.494  16.904  -2.385  1.00 20.00    -0.127 SA
HETATM    7  C5  UNL     1     -34.589  16.705  -0.828  1.00 20.00     0.096 C 
ENDBRANCH   4   6
TORSDOF 1
ENDMDL
MODEL 3
REMARK VINA RESULT:      -3.0     10.041     10.790
REMARK  1 active torsions:
REMARK  status: ('A' for Active; 'I' for Inactive)
REMARK    1  A    between atoms: C4_4  and  S7_7 
ROOT
HETATM    1  C1  UNL     1     -40.660   5.822  -0.494  1.00 20.00     0.009 A 
HETATM    2  C2  UNL     1     -41.193   4.634  -1.074  1.00 20.00     0.026 A 
HETATM    3  C3  UNL     1     -41.128   6.957  -1.118  1.00 20.00     0.051 A 
HETATM    4  C4  UNL     1     -42.048   4.907  -2.118  1.00 20.00     0.040 A 
HETATM    5  S6  UNL     1     -42.206   6.589  -2.396  1.00 20.00    -0.095 SA
ENDROOT
BRANCH   4   6
HETATM    6  S7  UNL     1     -42.906   3.722  -3.086  1.00 20.00    -0.127 SA
HETATM    7  C5  UNL     1     -41.636   2.438  -3.235  1.00 20.00     0.096 C 
ENDBRANCH   4   6
TORSDOF 1
ENDMDL
MODEL 4
REMARK VINA RESULT:      -3.0     12.247     13.381
REMARK  1 active torsions:
REMARK  status: ('A' for Active; 'I' for Inactive)
REMARK    1  A    between atoms: C4_4  and  S7_7 
ROOT
HETATM    1  C1  UNL     1     -33.633  13.632  -3.776  1.00 20.00     0.009 A 
HETATM    2  C2  UNL     1     -33.257  15.006  -3.812  1.00 20.00     0.026 A 
HETATM    3  C3  UNL     1     -34.469  13.297  -4.818  1.00 20.00     0.051 A 
HETATM    4  C4  UNL     1     -33.819  15.668  -4.881  1.00 20.00     0.040 A 
HETATM    5  S6  UNL     1     -34.796  14.635  -5.835  1.00 20.00    -0.095 SA
ENDROOT
BRANCH   4   6
HETATM    6  S7  UNL     1     -33.599  17.363  -5.276  1.00 20.00    -0.127 SA
HETATM    7  C5  UNL     1     -33.861  18.116  -3.649  1.00 20.00     0.096 C 
ENDBRANCH   4   6
TORSDOF 1
ENDMDL
MODEL 5
REMARK VINA RESULT:      -3.0     11.913     12.362
REMARK  1 active torsions:
REMARK  status: ('A' for Active; 'I' for Inactive)
REMARK    1  A    between atoms: C4_4  and  S7_7 
ROOT
HETATM    1  C1  UNL     1     -36.134  14.020  -4.079  1.00 20.00     0.009 A 
HETATM    2  C2  UNL     1     -35.877  15.227  -3.366  1.00 20.00     0.026 A 
HETATM    3  C3  UNL     1     -34.976  13.332  -4.365  1.00 20.00     0.051 A 
HETATM    4  C4  UNL     1     -34.532  15.414  -3.134  1.00 20.00     0.040 A 
HETATM    5  S6  UNL     1     -33.586  14.139  -3.775  1.00 20.00    -0.095 SA
ENDROOT
BRANCH   4   6
HETATM    6  S7  UNL     1     -33.810  16.771  -2.288  1.00 20.00    -0.127 SA
HETATM    7  C5  UNL     1     -34.684  16.674  -0.704  1.00 20.00     0.096 C 
ENDBRANCH   4   6
TORSDOF 1
ENDMDL
MODEL 6
REMARK VINA RESULT:      -3.0     12.440     13.606
REMARK  1 active torsions:
REMARK  status: ('A' for Active; 'I' for Inactive)
REMARK    1  A    between atoms: C4_4  and  S7_7 
ROOT
HETATM    1  C1  UNL     1     -33.609  13.820  -3.718  1.00 20.00     0.009 A 
HETATM    2  C2  UNL     1     -34.389  13.492  -4.865  1.00 20.00     0.026 A 
HETATM    3  C3  UNL     1     -33.187  15.132  -3.737  1.00 20.00     0.051 A 
HETATM    4  C4  UNL     1     -34.534  14.565  -5.716  1.00 20.00     0.040 A 
HETATM    5  S6  UNL     1     -33.730  15.961  -5.133  1.00 20.00    -0.095 SA
ENDROOT
BRANCH   4   6
HETATM    6  S7  UNL     1     -35.422  14.570  -7.229  1.00 20.00    -0.127 SA
HETATM    7  C5  UNL     1     -37.002  15.265  -6.680  1.00 20.00     0.096 C 
ENDBRANCH   4   6
TORSDOF 1
ENDMDL
MODEL 7
REMARK VINA RESULT:      -3.0     12.656     13.138
REMARK  1 active torsions:
REMARK  status: ('A' for Active; 'I' for Inactive)
REMARK    1  A    between atoms: C4_4  and  S7_7 
ROOT
HETATM    1  C1  UNL     1     -34.732  17.044  -0.237  1.00 20.00     0.009 A 
HETATM    2  C2  UNL     1     -34.552  16.326  -1.455  1.00 20.00     0.026 A 
HETATM    3  C3  UNL     1     -34.285  18.344  -0.331  1.00 20.00     0.051 A 
HETATM    4  C4  UNL     1     -33.976  17.105  -2.434  1.00 20.00     0.040 A 
HETATM    5  S6  UNL     1     -33.654  18.695  -1.883  1.00 20.00    -0.095 SA
ENDROOT
BRANCH   4   6
HETATM    6  S7  UNL     1     -33.594  16.594  -4.068  1.00 20.00    -0.127 SA
HETATM    7  C5  UNL     1     -33.101  14.876  -3.768  1.00 20.00     0.096 C 
ENDBRANCH   4   6
TORSDOF 1
ENDMDL
MODEL 8
REMARK VINA RESULT:      -2.9     10.224     10.738
REMARK  1 active torsions:
REMARK  status: ('A' for Active; 'I' for Inactive)
REMARK    1  A    between atoms: C4_4  and  S7_7 
ROOT
HETATM    1  C1  UNL     1     -40.692   6.311  -0.459  1.00 20.00     0.009 A 
HETATM    2  C2  UNL     1     -41.530   7.136  -1.265  1.00 20.00     0.026 A 
HETATM    3  C3  UNL     1     -40.814   4.978  -0.782  1.00 20.00     0.051 A 
HETATM    4  C4  UNL     1     -42.259   6.402  -2.173  1.00 20.00     0.040 A 
HETATM    5  S6  UNL     1     -41.934   4.725  -2.053  1.00 20.00    -0.095 SA
ENDROOT
BRANCH   4   6
HETATM    6  S7  UNL     1     -43.399   7.045  -3.342  1.00 20.00    -0.127 SA
HETATM    7  C5  UNL     1     -42.365   8.288  -4.159  1.00 20.00     0.096 C 
ENDBRANCH   4   6
TORSDOF 1
ENDMDL
MODEL 9
REMARK VINA RESULT:      -2.9     12.310     13.441
REMARK  1 active torsions:
REMARK  status: ('A' for Active; 'I' for Inactive)
REMARK    1  A    between atoms: C4_4  and  S7_7 
ROOT
HETATM    1  C1  UNL     1     -33.923  17.634  -2.724  1.00 20.00     0.009 A 
HETATM    2  C2  UNL     1     -33.908  16.228  -2.496  1.00 20.00     0.026 A 
HETATM    3  C3  UNL     1     -33.706  17.946  -4.049  1.00 20.00     0.051 A 
HETATM    4  C4  UNL     1     -33.681  15.518  -3.654  1.00 20.00     0.040 A 
HETATM    5  S6  UNL     1     -33.486  16.546  -5.010  1.00 20.00    -0.095 SA
ENDROOT
BRANCH   4   6
HETATM    6  S7  UNL     1     -33.593  13.771  -3.794  1.00 20.00    -0.127 SA
HETATM    7  C5  UNL     1     -34.823  13.483  -5.094  1.00 20.00     0.096 C 
ENDBRANCH   4   6
TORSDOF 1
ENDMDL
