MODEL 1
REMARK VINA RESULT:      -4.3      0.000      0.000
REMARK  3 active torsions:
REMARK  status: ('A' for Active; 'I' for Inactive)
REMARK    1  A    between atoms: C4_4  and  S10_10 
REMARK    2  A    between atoms: C5_5  and  C7_7 
REMARK    3  A    between atoms: C7_7  and  S10_10 
ROOT
HETATM    1  C1  UNL     1     -34.717  17.061  -0.382  1.00 20.00     0.009 A 
HETATM    2  C2  UNL     1     -34.520  16.229  -1.522  1.00 20.00     0.026 A 
HETATM    3  C3  UNL     1     -34.295  18.353  -0.606  1.00 20.00     0.051 A 
HETATM    4  C4  UNL     1     -33.952  16.916  -2.572  1.00 20.00     0.041 A 
HETATM    5  S9  UNL     1     -33.662  18.558  -2.183  1.00 20.00    -0.095 SA
ENDROOT
BRANCH   4   6
HETATM    6  S10 UNL     1     -33.551  16.244  -4.157  1.00 20.00    -0.115 SA
BRANCH   6   7
HETATM    7  C7  UNL     1     -33.604  14.478  -3.778  1.00 20.00     0.157 C 
BRANCH   7   8
HETATM    8  C5  UNL     1     -34.446  13.719  -4.776  1.00 20.00     0.132 C 
HETATM    9  C6  UNL     1     -34.691  14.436  -6.062  1.00 20.00     0.091 C 
HETATM   10  O8  UNL     1     -34.919  12.602  -4.608  1.00 20.00    -0.298 OA
ENDBRANCH   7   8
ENDBRANCH   6   7
ENDBRANCH   4   6
TORSDOF 3
ENDMDL
MODEL 2
REMARK VINA RESULT:      -4.2      0.841      1.167
REMARK  3 active torsions:
REMARK  status: ('A' for Active; 'I' for Inactive)
REMARK    1  A    between atoms: C4_4  and  S10_10 
REMARK    2  A    between atoms: C5_5  and  C7_7 
REMARK    3  A    between atoms: C7_7  and  S10_10 
ROOT
HETATM    1  C1  UNL     1     -34.560  17.149  -0.192  1.00 20.00     0.009 A 
HETATM    2  C2  UNL     1     -34.719  16.352  -1.362  1.00 20.00     0.026 A 
HETATM    3  C3  UNL     1     -34.090  18.411  -0.486  1.00 20.00     0.051 A 
HETATM    4  C4  UNL     1     -34.364  17.033  -2.505  1.00 20.00     0.041 A 
HETATM    5  S9  UNL     1     -33.841  18.628  -2.166  1.00 20.00    -0.095 SA
ENDROOT
BRANCH   4   6
HETATM    6  S10 UNL     1     -34.420  16.398  -4.154  1.00 20.00    -0.115 SA
BRANCH   6   7
HETATM    7  C7  UNL     1     -35.443  14.931  -3.895  1.00 20.00     0.157 C 
BRANCH   7   8
HETATM    8  C5  UNL     1     -34.649  13.659  -4.066  1.00 20.00     0.132 C 
HETATM    9  C6  UNL     1     -33.205  13.770  -3.704  1.00 20.00     0.091 C 
HETATM   10  O8  UNL     1     -35.091  12.588  -4.464  1.00 20.00    -0.298 OA
ENDBRANCH   7   8
ENDBRANCH   6   7
ENDBRANCH   4   6
TORSDOF 3
ENDMDL
MODEL 3
REMARK VINA RESULT:      -4.2      1.385      1.638
REMARK  3 active torsions:
REMARK  status: ('A' for Active; 'I' for Inactive)
REMARK    1  A    between atoms: C4_4  and  S10_10 
REMARK    2  A    between atoms: C5_5  and  C7_7 
REMARK    3  A    between atoms: C7_7  and  S10_10 
ROOT
HETATM    1  C1  UNL     1     -34.793  17.086  -0.181  1.00 20.00     0.009 A 
HETATM    2  C2  UNL     1     -34.559  16.350  -1.378  1.00 20.00     0.026 A 
HETATM    3  C3  UNL     1     -35.700  18.107  -0.371  1.00 20.00     0.051 A 
HETATM    4  C4  UNL     1     -35.292  16.837  -2.438  1.00 20.00     0.041 A 
HETATM    5  S9  UNL     1     -36.261  18.176  -1.987  1.00 20.00    -0.095 SA
ENDROOT
BRANCH   4   6
HETATM    6  S10 UNL     1     -35.285  16.201  -4.086  1.00 20.00    -0.115 SA
BRANCH   6   7
HETATM    7  C7  UNL     1     -35.771  14.490  -3.770  1.00 20.00     0.157 C 
BRANCH   7   8
HETATM    8  C5  UNL     1     -34.703  13.516  -4.210  1.00 20.00     0.132 C 
HETATM    9  C6  UNL     1     -33.327  13.840  -3.731  1.00 20.00     0.091 C 
HETATM   10  O8  UNL     1     -34.884  12.522  -4.900  1.00 20.00    -0.298 OA
ENDBRANCH   7   8
ENDBRANCH   6   7
ENDBRANCH   4   6
TORSDOF 3
ENDMDL
MODEL 4
REMARK VINA RESULT:      -4.0     11.264     11.869
REMARK  3 active torsions:
REMARK  status: ('A' for Active; 'I' for Inactive)
REMARK    1  A    between atoms: C4_4  and  S10_10 
REMARK    2  A    between atoms: C5_5  and  C7_7 
REMARK    3  A    between atoms: C7_7  and  S10_10 
ROOT
HETATM    1  C1  UNL     1     -34.294   6.070   6.478  1.00 20.00     0.009 A 
HETATM    2  C2  UNL     1     -33.492   6.542   5.399  1.00 20.00     0.026 A 
HETATM    3  C3  UNL     1     -35.122   5.038   6.093  1.00 20.00     0.051 A 
HETATM    4  C4  UNL     1     -33.738   5.856   4.231  1.00 20.00     0.041 A 
HETATM    5  S9  UNL     1     -34.932   4.645   4.437  1.00 20.00    -0.095 SA
ENDROOT
BRANCH   4   6
HETATM    6  S10 UNL     1     -32.950   6.137   2.674  1.00 20.00    -0.115 SA
BRANCH   6   7
HETATM    7  C7  UNL     1     -32.091   7.687   3.027  1.00 20.00     0.157 C 
BRANCH   7   8
HETATM    8  C5  UNL     1     -32.036   8.584   1.813  1.00 20.00     0.132 C 
HETATM    9  C6  UNL     1     -32.742   9.890   1.968  1.00 20.00     0.091 C 
HETATM   10  O8  UNL     1     -31.473   8.323   0.758  1.00 20.00    -0.298 OA
ENDBRANCH   7   8
ENDBRANCH   6   7
ENDBRANCH   4   6
TORSDOF 3
ENDMDL
MODEL 5
REMARK VINA RESULT:      -3.8      2.081      4.668
REMARK  3 active torsions:
REMARK  status: ('A' for Active; 'I' for Inactive)
REMARK    1  A    between atoms: C4_4  and  S10_10 
REMARK    2  A    between atoms: C5_5  and  C7_7 
REMARK    3  A    between atoms: C7_7  and  S10_10 
ROOT
HETATM    1  C1  UNL     1     -35.524  14.490  -7.742  1.00 20.00     0.009 A 
HETATM    2  C2  UNL     1     -34.369  14.986  -7.071  1.00 20.00     0.026 A 
HETATM    3  C3  UNL     1     -36.685  15.047  -7.254  1.00 20.00     0.051 A 
HETATM    4  C4  UNL     1     -34.692  15.901  -6.094  1.00 20.00     0.041 A 
HETATM    5  S9  UNL     1     -36.381  16.161  -5.990  1.00 20.00    -0.095 SA
ENDROOT
BRANCH   4   6
HETATM    6  S10 UNL     1     -33.549  16.745  -5.042  1.00 20.00    -0.115 SA
BRANCH   6   7
HETATM    7  C7  UNL     1     -32.924  15.356  -4.071  1.00 20.00     0.157 C 
BRANCH   7   8
HETATM    8  C5  UNL     1     -34.040  14.619  -3.368  1.00 20.00     0.132 C 
HETATM    9  C6  UNL     1     -34.882  15.467  -2.473  1.00 20.00     0.091 C 
HETATM   10  O8  UNL     1     -34.289  13.426  -3.480  1.00 20.00    -0.298 OA
ENDBRANCH   7   8
ENDBRANCH   6   7
ENDBRANCH   4   6
TORSDOF 3
ENDMDL
MODEL 6
REMARK VINA RESULT:      -3.7     13.110     14.246
REMARK  3 active torsions:
REMARK  status: ('A' for Active; 'I' for Inactive)
REMARK    1  A    between atoms: C4_4  and  S10_10 
REMARK    2  A    between atoms: C5_5  and  C7_7 
REMARK    3  A    between atoms: C7_7  and  S10_10 
ROOT
HETATM    1  C1  UNL     1     -40.664   5.824  -0.416  1.00 20.00     0.009 A 
HETATM    2  C2  UNL     1     -41.175   4.651  -1.042  1.00 20.00     0.026 A 
HETATM    3  C3  UNL     1     -41.150   6.975  -0.998  1.00 20.00     0.051 A 
HETATM    4  C4  UNL     1     -42.031   4.949  -2.079  1.00 20.00     0.041 A 
HETATM    5  S9  UNL     1     -42.217   6.638  -2.294  1.00 20.00    -0.095 SA
ENDROOT
BRANCH   4   6
HETATM    6  S10 UNL     1     -42.872   3.778  -3.101  1.00 20.00    -0.115 SA
BRANCH   6   7
HETATM    7  C7  UNL     1     -41.607   2.493  -3.222  1.00 20.00     0.157 C 
BRANCH   7   8
HETATM    8  C5  UNL     1     -41.919   1.503  -4.319  1.00 20.00     0.132 C 
HETATM    9  C6  UNL     1     -41.635   0.079  -3.974  1.00 20.00     0.091 C 
HETATM   10  O8  UNL     1     -42.371   1.779  -5.422  1.00 20.00    -0.298 OA
ENDBRANCH   7   8
ENDBRANCH   6   7
ENDBRANCH   4   6
TORSDOF 3
ENDMDL
MODEL 7
REMARK VINA RESULT:      -3.7      2.268      4.510
REMARK  3 active torsions:
REMARK  status: ('A' for Active; 'I' for Inactive)
REMARK    1  A    between atoms: C4_4  and  S10_10 
REMARK    2  A    between atoms: C5_5  and  C7_7 
REMARK    3  A    between atoms: C7_7  and  S10_10 
ROOT
HETATM    1  C1  UNL     1     -33.369  13.660  -3.751  1.00 20.00     0.009 A 
HETATM    2  C2  UNL     1     -32.980  15.030  -3.721  1.00 20.00     0.026 A 
HETATM    3  C3  UNL     1     -34.608  13.488  -4.330  1.00 20.00     0.051 A 
HETATM    4  C4  UNL     1     -33.935  15.853  -4.274  1.00 20.00     0.041 A 
HETATM    5  S9  UNL     1     -35.296  14.974  -4.830  1.00 20.00    -0.095 SA
ENDROOT
BRANCH   4   6
HETATM    6  S10 UNL     1     -33.831  17.611  -4.428  1.00 20.00    -0.115 SA
BRANCH   6   7
HETATM    7  C7  UNL     1     -33.790  18.081  -2.683  1.00 20.00     0.157 C 
BRANCH   7   8
HETATM    8  C5  UNL     1     -34.973  17.524  -1.927  1.00 20.00     0.132 C 
HETATM    9  C6  UNL     1     -34.619  16.700  -0.733  1.00 20.00     0.091 C 
HETATM   10  O8  UNL     1     -36.150  17.698  -2.214  1.00 20.00    -0.298 OA
ENDBRANCH   7   8
ENDBRANCH   6   7
ENDBRANCH   4   6
TORSDOF 3
ENDMDL
MODEL 8
REMARK VINA RESULT:      -3.7      2.718      4.927
REMARK  3 active torsions:
REMARK  status: ('A' for Active; 'I' for Inactive)
REMARK    1  A    between atoms: C4_4  and  S10_10 
REMARK    2  A    between atoms: C5_5  and  C7_7 
REMARK    3  A    between atoms: C7_7  and  S10_10 
ROOT
HETATM    1  C1  UNL     1     -35.072  13.380  -4.263  1.00 20.00     0.009 A 
HETATM    2  C2  UNL     1     -35.812  14.513  -3.816  1.00 20.00     0.026 A 
HETATM    3  C3  UNL     1     -33.712  13.597  -4.211  1.00 20.00     0.051 A 
HETATM    4  C4  UNL     1     -34.990  15.553  -3.442  1.00 20.00     0.041 A 
HETATM    5  S9  UNL     1     -33.333  15.162  -3.628  1.00 20.00    -0.095 SA
ENDROOT
BRANCH   4   6
HETATM    6  S10 UNL     1     -35.518  17.126  -2.832  1.00 20.00    -0.115 SA
BRANCH   6   7
HETATM    7  C7  UNL     1     -33.925  17.833  -2.355  1.00 20.00     0.157 C 
BRANCH   7   8
HETATM    8  C5  UNL     1     -33.724  17.800  -0.859  1.00 20.00     0.132 C 
HETATM    9  C6  UNL     1     -34.822  17.135  -0.096  1.00 20.00     0.091 C 
HETATM   10  O8  UNL     1     -32.764  18.261  -0.256  1.00 20.00    -0.298 OA
ENDBRANCH   7   8
ENDBRANCH   6   7
ENDBRANCH   4   6
TORSDOF 3
ENDMDL
MODEL 9
REMARK VINA RESULT:      -3.6      2.799      4.681
REMARK  3 active torsions:
REMARK  status: ('A' for Active; 'I' for Inactive)
REMARK    1  A    between atoms: C4_4  and  S10_10 
REMARK    2  A    between atoms: C5_5  and  C7_7 
REMARK    3  A    between atoms: C7_7  and  S10_10 
ROOT
HETATM    1  C1  UNL     1     -34.854  15.021  -7.897  1.00 20.00     0.009 A 
HETATM    2  C2  UNL     1     -35.466  14.348  -6.800  1.00 20.00     0.026 A 
HETATM    3  C3  UNL     1     -34.868  16.389  -7.737  1.00 20.00     0.051 A 
HETATM    4  C4  UNL     1     -35.925  15.226  -5.844  1.00 20.00     0.041 A 
HETATM    5  S9  UNL     1     -35.617  16.857  -6.270  1.00 20.00    -0.095 SA
ENDROOT
BRANCH   4   6
HETATM    6  S10 UNL     1     -36.738  14.791  -4.337  1.00 20.00    -0.115 SA
BRANCH   6   7
HETATM    7  C7  UNL     1     -35.424  15.151  -3.150  1.00 20.00     0.157 C 
BRANCH   7   8
HETATM    8  C5  UNL     1     -34.183  14.336  -3.427  1.00 20.00     0.132 C 
HETATM    9  C6  UNL     1     -32.943  15.140  -3.643  1.00 20.00     0.091 C 
HETATM   10  O8  UNL     1     -34.128  13.115  -3.482  1.00 20.00    -0.298 OA
ENDBRANCH   7   8
ENDBRANCH   6   7
ENDBRANCH   4   6
TORSDOF 3
ENDMDL
