MODEL 1
REMARK VINA RESULT:      -5.9      0.000      0.000
REMARK  1 active torsions:
REMARK  status: ('A' for Active; 'I' for Inactive)
REMARK    1  A    between atoms: C6_6  and  C9_9 
ROOT
HETATM    1  C1  UNL     1     -35.233   4.194   5.888  1.00 20.00     0.001 A 
HETATM    2  C2  UNL     1     -35.217   4.171   4.493  1.00 20.00     0.001 A 
HETATM    3  C3  UNL     1     -34.604   5.231   6.575  1.00 20.00     0.007 A 
HETATM    4  C4  UNL     1     -34.572   5.185   3.785  1.00 20.00     0.007 A 
HETATM    5  C5  UNL     1     -33.957   6.246   5.868  1.00 20.00    -0.056 A 
HETATM    6  C6  UNL     1     -33.942   6.223   4.473  1.00 20.00    -0.053 A 
HETATM    7  C7  UNL     1     -33.291   7.346   6.626  1.00 20.00     0.049 C 
ENDROOT
BRANCH   6   8
HETATM    8  C9  UNL     1     -33.256   7.297   3.695  1.00 20.00     0.034 C 
HETATM    9  C8  UNL     1     -32.031   6.778   2.948  1.00 20.00     0.010 C 
ENDBRANCH   6   8
TORSDOF 1
ENDMDL
MODEL 2
REMARK VINA RESULT:      -5.5      0.741      2.391
REMARK  1 active torsions:
REMARK  status: ('A' for Active; 'I' for Inactive)
REMARK    1  A    between atoms: C6_6  and  C9_9 
ROOT
HETATM    1  C1  UNL     1     -35.102   4.719   5.986  1.00 20.00     0.001 A 
HETATM    2  C2  UNL     1     -34.367   5.794   6.487  1.00 20.00     0.001 A 
HETATM    3  C3  UNL     1     -35.148   4.486   4.612  1.00 20.00     0.007 A 
HETATM    4  C4  UNL     1     -33.677   6.635   5.614  1.00 20.00     0.007 A 
HETATM    5  C5  UNL     1     -34.459   5.327   3.738  1.00 20.00    -0.056 A 
HETATM    6  C6  UNL     1     -33.723   6.402   4.239  1.00 20.00    -0.053 A 
HETATM    7  C7  UNL     1     -34.522   5.057   2.271  1.00 20.00     0.049 C 
ENDROOT
BRANCH   6   8
HETATM    8  C9  UNL     1     -32.979   7.316   3.323  1.00 20.00     0.034 C 
HETATM    9  C8  UNL     1     -31.490   7.380   3.655  1.00 20.00     0.010 C 
ENDBRANCH   6   8
TORSDOF 1
ENDMDL
MODEL 3
REMARK VINA RESULT:      -4.8      0.936      3.221
REMARK  1 active torsions:
REMARK  status: ('A' for Active; 'I' for Inactive)
REMARK    1  A    between atoms: C6_6  and  C9_9 
ROOT
HETATM    1  C1  UNL     1     -32.013   7.039   3.170  1.00 20.00     0.001 A 
HETATM    2  C2  UNL     1     -32.731   6.132   2.391  1.00 20.00     0.001 A 
HETATM    3  C3  UNL     1     -32.385   7.271   4.493  1.00 20.00     0.007 A 
HETATM    4  C4  UNL     1     -33.823   5.455   2.937  1.00 20.00     0.007 A 
HETATM    5  C5  UNL     1     -33.477   6.596   5.039  1.00 20.00    -0.056 A 
HETATM    6  C6  UNL     1     -34.195   5.687   4.261  1.00 20.00    -0.053 A 
HETATM    7  C7  UNL     1     -33.856   6.859   6.459  1.00 20.00     0.049 C 
ENDROOT
BRANCH   6   8
HETATM    8  C9  UNL     1     -35.367   4.953   4.824  1.00 20.00     0.034 C 
HETATM    9  C8  UNL     1     -34.947   3.775   5.698  1.00 20.00     0.010 C 
ENDBRANCH   6   8
TORSDOF 1
ENDMDL
MODEL 4
REMARK VINA RESULT:      -4.7      0.474      2.722
REMARK  1 active torsions:
REMARK  status: ('A' for Active; 'I' for Inactive)
REMARK    1  A    between atoms: C6_6  and  C9_9 
ROOT
HETATM    1  C1  UNL     1     -35.229   4.154   4.440  1.00 20.00     0.001 A 
HETATM    2  C2  UNL     1     -35.279   4.298   5.826  1.00 20.00     0.001 A 
HETATM    3  C3  UNL     1     -34.481   5.046   3.672  1.00 20.00     0.007 A 
HETATM    4  C4  UNL     1     -34.581   5.334   6.446  1.00 20.00     0.007 A 
HETATM    5  C5  UNL     1     -33.782   6.083   4.291  1.00 20.00    -0.056 A 
HETATM    6  C6  UNL     1     -33.832   6.227   5.678  1.00 20.00    -0.053 A 
HETATM    7  C7  UNL     1     -32.987   7.026   3.449  1.00 20.00     0.049 C 
ENDROOT
BRANCH   6   8
HETATM    8  C9  UNL     1     -33.093   7.329   6.363  1.00 20.00     0.034 C 
HETATM    9  C8  UNL     1     -33.875   7.904   7.541  1.00 20.00     0.010 C 
ENDBRANCH   6   8
TORSDOF 1
ENDMDL
MODEL 5
REMARK VINA RESULT:      -4.6      0.816      3.508
REMARK  1 active torsions:
REMARK  status: ('A' for Active; 'I' for Inactive)
REMARK    1  A    between atoms: C6_6  and  C9_9 
ROOT
HETATM    1  C1  UNL     1     -32.950   6.026   2.346  1.00 20.00     0.001 A 
HETATM    2  C2  UNL     1     -32.294   6.930   3.181  1.00 20.00     0.001 A 
HETATM    3  C3  UNL     1     -33.991   5.243   2.845  1.00 20.00     0.007 A 
HETATM    4  C4  UNL     1     -32.679   7.051   4.517  1.00 20.00     0.007 A 
HETATM    5  C5  UNL     1     -34.376   5.364   4.181  1.00 20.00    -0.056 A 
HETATM    6  C6  UNL     1     -33.720   6.268   5.016  1.00 20.00    -0.053 A 
HETATM    7  C7  UNL     1     -35.494   4.516   4.692  1.00 20.00     0.049 C 
ENDROOT
BRANCH   6   8
HETATM    8  C9  UNL     1     -34.115   6.414   6.449  1.00 20.00     0.034 C 
HETATM    9  C8  UNL     1     -33.400   7.579   7.130  1.00 20.00     0.010 C 
ENDBRANCH   6   8
TORSDOF 1
ENDMDL
MODEL 6
REMARK VINA RESULT:      -4.5     11.948     13.439
REMARK  1 active torsions:
REMARK  status: ('A' for Active; 'I' for Inactive)
REMARK    1  A    between atoms: C6_6  and  C9_9 
ROOT
HETATM    1  C1  UNL     1     -34.847  13.820  -5.797  1.00 20.00     0.001 A 
HETATM    2  C2  UNL     1     -34.899  13.336  -4.490  1.00 20.00     0.001 A 
HETATM    3  C3  UNL     1     -34.389  15.114  -6.044  1.00 20.00     0.007 A 
HETATM    4  C4  UNL     1     -34.493  14.147  -3.429  1.00 20.00     0.007 A 
HETATM    5  C5  UNL     1     -33.984  15.925  -4.984  1.00 20.00    -0.056 A 
HETATM    6  C6  UNL     1     -34.035  15.441  -3.676  1.00 20.00    -0.053 A 
HETATM    7  C7  UNL     1     -33.496  17.307  -5.273  1.00 20.00     0.049 C 
ENDROOT
BRANCH   6   8
HETATM    8  C9  UNL     1     -33.607  16.291  -2.526  1.00 20.00     0.034 C 
HETATM    9  C8  UNL     1     -34.680  16.383  -1.444  1.00 20.00     0.010 C 
ENDBRANCH   6   8
TORSDOF 1
ENDMDL
MODEL 7
REMARK VINA RESULT:      -4.4     12.130     12.521
REMARK  1 active torsions:
REMARK  status: ('A' for Active; 'I' for Inactive)
REMARK    1  A    between atoms: C6_6  and  C9_9 
ROOT
HETATM    1  C1  UNL     1     -35.617  13.465  -4.558  1.00 20.00     0.001 A 
HETATM    2  C2  UNL     1     -36.448  14.374  -3.903  1.00 20.00     0.001 A 
HETATM    3  C3  UNL     1     -34.233  13.560  -4.421  1.00 20.00     0.007 A 
HETATM    4  C4  UNL     1     -35.894  15.379  -3.109  1.00 20.00     0.007 A 
HETATM    5  C5  UNL     1     -33.678  14.565  -3.627  1.00 20.00    -0.056 A 
HETATM    6  C6  UNL     1     -34.509  15.474  -2.971  1.00 20.00    -0.053 A 
HETATM    7  C7  UNL     1     -32.193  14.646  -3.494  1.00 20.00     0.049 C 
ENDROOT
BRANCH   6   8
HETATM    8  C9  UNL     1     -33.938  16.558  -2.118  1.00 20.00     0.034 C 
HETATM    9  C8  UNL     1     -34.640  16.661  -0.767  1.00 20.00     0.010 C 
ENDBRANCH   6   8
TORSDOF 1
ENDMDL
MODEL 8
REMARK VINA RESULT:      -4.4     12.080     12.652
REMARK  1 active torsions:
REMARK  status: ('A' for Active; 'I' for Inactive)
REMARK    1  A    between atoms: C6_6  and  C9_9 
ROOT
HETATM    1  C1  UNL     1     -34.257  13.313  -4.570  1.00 20.00     0.001 A 
HETATM    2  C2  UNL     1     -33.291  14.026  -3.861  1.00 20.00     0.001 A 
HETATM    3  C3  UNL     1     -35.600  13.678  -4.480  1.00 20.00     0.007 A 
HETATM    4  C4  UNL     1     -33.668  15.106  -3.061  1.00 20.00     0.007 A 
HETATM    5  C5  UNL     1     -35.978  14.756  -3.680  1.00 20.00    -0.056 A 
HETATM    6  C6  UNL     1     -35.012  15.471  -2.971  1.00 20.00    -0.053 A 
HETATM    7  C7  UNL     1     -37.422  15.129  -3.600  1.00 20.00     0.049 C 
ENDROOT
BRANCH   6   8
HETATM    8  C9  UNL     1     -35.392  16.628  -2.108  1.00 20.00     0.034 C 
HETATM    9  C8  UNL     1     -34.583  16.676  -0.815  1.00 20.00     0.010 C 
ENDBRANCH   6   8
TORSDOF 1
ENDMDL
MODEL 9
REMARK VINA RESULT:      -4.2     12.291     13.045
REMARK  1 active torsions:
REMARK  status: ('A' for Active; 'I' for Inactive)
REMARK    1  A    between atoms: C6_6  and  C9_9 
ROOT
HETATM    1  C1  UNL     1     -34.562  18.516   2.860  1.00 20.00     0.001 A 
HETATM    2  C2  UNL     1     -35.456  17.716   2.149  1.00 20.00     0.001 A 
HETATM    3  C3  UNL     1     -33.401  18.982   2.245  1.00 20.00     0.007 A 
HETATM    4  C4  UNL     1     -35.189  17.382   0.820  1.00 20.00     0.007 A 
HETATM    5  C5  UNL     1     -33.133  18.648   0.917  1.00 20.00    -0.056 A 
HETATM    6  C6  UNL     1     -34.028  17.849   0.205  1.00 20.00    -0.053 A 
HETATM    7  C7  UNL     1     -31.883  19.160   0.278  1.00 20.00     0.049 C 
ENDROOT
BRANCH   6   8
HETATM    8  C9  UNL     1     -33.761  17.478  -1.217  1.00 20.00     0.034 C 
HETATM    9  C8  UNL     1     -34.595  16.282  -1.668  1.00 20.00     0.010 C 
ENDBRANCH   6   8
TORSDOF 1
ENDMDL
