MODEL 1
REMARK VINA RESULT:      -4.8      0.000      0.000
REMARK  1 active torsions:
REMARK  status: ('A' for Active; 'I' for Inactive)
REMARK    1  A    between atoms: C4_4  and  C6_6 
ROOT
HETATM    1  C1  UNL     1     -35.154   4.737   6.077  1.00 20.00     0.027 A 
HETATM    2  C2  UNL     1     -34.946   4.605   4.683  1.00 20.00     0.034 A 
HETATM    3  C3  UNL     1     -34.418   5.831   6.470  1.00 20.00     0.142 A 
HETATM    4  C4  UNL     1     -34.099   5.627   4.324  1.00 20.00     0.052 A 
HETATM    5  O7  UNL     1     -33.773   6.380   5.407  1.00 20.00    -0.327 OA
ENDROOT
BRANCH   4   6
HETATM    6  C6  UNL     1     -33.507   6.039   3.044  1.00 20.00     0.060 C 
HETATM    7  C5  UNL     1     -32.214   6.849   3.210  1.00 20.00     0.012 C 
ENDBRANCH   4   6
TORSDOF 1
ENDMDL
MODEL 2
REMARK VINA RESULT:      -4.6      1.008      1.428
REMARK  1 active torsions:
REMARK  status: ('A' for Active; 'I' for Inactive)
REMARK    1  A    between atoms: C4_4  and  C6_6 
ROOT
HETATM    1  C1  UNL     1     -34.733   5.278   6.443  1.00 20.00     0.027 A 
HETATM    2  C2  UNL     1     -33.959   6.224   5.730  1.00 20.00     0.034 A 
HETATM    3  C3  UNL     1     -35.196   4.381   5.508  1.00 20.00     0.142 A 
HETATM    4  C4  UNL     1     -34.003   5.837   4.411  1.00 20.00     0.052 A 
HETATM    5  O7  UNL     1     -34.754   4.715   4.266  1.00 20.00    -0.327 OA
ENDROOT
BRANCH   4   6
HETATM    6  C6  UNL     1     -33.414   6.389   3.182  1.00 20.00     0.060 C 
HETATM    7  C5  UNL     1     -32.011   6.972   3.395  1.00 20.00     0.012 C 
ENDBRANCH   4   6
TORSDOF 1
ENDMDL
MODEL 3
REMARK VINA RESULT:      -4.2      0.832      3.152
REMARK  1 active torsions:
REMARK  status: ('A' for Active; 'I' for Inactive)
REMARK    1  A    between atoms: C4_4  and  C6_6 
ROOT
HETATM    1  C1  UNL     1     -33.772   5.782   2.566  1.00 20.00     0.027 A 
HETATM    2  C2  UNL     1     -34.616   5.375   3.626  1.00 20.00     0.034 A 
HETATM    3  C3  UNL     1     -32.747   6.494   3.145  1.00 20.00     0.142 A 
HETATM    4  C4  UNL     1     -34.047   5.866   4.778  1.00 20.00     0.052 A 
HETATM    5  O7  UNL     1     -32.907   6.549   4.494  1.00 20.00    -0.327 OA
ENDROOT
BRANCH   4   6
HETATM    6  C6  UNL     1     -34.426   5.794   6.196  1.00 20.00     0.060 C 
HETATM    7  C5  UNL     1     -35.150   4.491   6.560  1.00 20.00     0.012 C 
ENDBRANCH   4   6
TORSDOF 1
ENDMDL
MODEL 4
REMARK VINA RESULT:      -4.1      1.330      3.389
REMARK  1 active torsions:
REMARK  status: ('A' for Active; 'I' for Inactive)
REMARK    1  A    between atoms: C4_4  and  C6_6 
ROOT
HETATM    1  C1  UNL     1     -32.330   6.946   3.693  1.00 20.00     0.027 A 
HETATM    2  C2  UNL     1     -33.261   6.576   4.693  1.00 20.00     0.034 A 
HETATM    3  C3  UNL     1     -32.689   6.250   2.562  1.00 20.00     0.142 A 
HETATM    4  C4  UNL     1     -34.123   5.683   4.100  1.00 20.00     0.052 A 
HETATM    5  O7  UNL     1     -33.781   5.478   2.801  1.00 20.00    -0.327 OA
ENDROOT
BRANCH   4   6
HETATM    6  C6  UNL     1     -35.292   4.939   4.590  1.00 20.00     0.060 C 
HETATM    7  C5  UNL     1     -35.062   4.287   5.960  1.00 20.00     0.012 C 
ENDBRANCH   4   6
TORSDOF 1
ENDMDL
MODEL 5
REMARK VINA RESULT:      -3.7     12.074     12.443
REMARK  1 active torsions:
REMARK  status: ('A' for Active; 'I' for Inactive)
REMARK    1  A    between atoms: C4_4  and  C6_6 
ROOT
HETATM    1  C1  UNL     1     -34.784  13.347  -4.386  1.00 20.00     0.027 A 
HETATM    2  C2  UNL     1     -33.741  14.065  -3.754  1.00 20.00     0.034 A 
HETATM    3  C3  UNL     1     -35.941  14.044  -4.126  1.00 20.00     0.142 A 
HETATM    4  C4  UNL     1     -34.335  15.151  -3.154  1.00 20.00     0.052 A 
HETATM    5  O7  UNL     1     -35.676  15.146  -3.376  1.00 20.00    -0.327 OA
ENDROOT
BRANCH   4   6
HETATM    6  C6  UNL     1     -33.813  16.266  -2.352  1.00 20.00     0.060 C 
HETATM    7  C5  UNL     1     -34.629  16.527  -1.078  1.00 20.00     0.012 C 
ENDBRANCH   4   6
TORSDOF 1
ENDMDL
MODEL 6
REMARK VINA RESULT:      -3.5     12.058     12.453
REMARK  1 active torsions:
REMARK  status: ('A' for Active; 'I' for Inactive)
REMARK    1  A    between atoms: C4_4  and  C6_6 
ROOT
HETATM    1  C1  UNL     1     -35.200  13.723  -4.140  1.00 20.00     0.027 A 
HETATM    2  C2  UNL     1     -35.470  14.866  -3.350  1.00 20.00     0.034 A 
HETATM    3  C3  UNL     1     -33.830  13.633  -4.226  1.00 20.00     0.142 A 
HETATM    4  C4  UNL     1     -34.246  15.392  -3.009  1.00 20.00     0.052 A 
HETATM    5  O7  UNL     1     -33.241  14.647  -3.538  1.00 20.00    -0.327 OA
ENDROOT
BRANCH   4   6
HETATM    6  C6  UNL     1     -33.840  16.560  -2.214  1.00 20.00     0.060 C 
HETATM    7  C5  UNL     1     -34.575  16.660  -0.871  1.00 20.00     0.012 C 
ENDBRANCH   4   6
TORSDOF 1
ENDMDL
MODEL 7
REMARK VINA RESULT:      -3.3      9.851     10.369
REMARK  1 active torsions:
REMARK  status: ('A' for Active; 'I' for Inactive)
REMARK    1  A    between atoms: C4_4  and  C6_6 
ROOT
HETATM    1  C1  UNL     1     -40.729   6.140  -0.241  1.00 20.00     0.027 A 
HETATM    2  C2  UNL     1     -41.464   7.054  -1.031  1.00 20.00     0.034 A 
HETATM    3  C3  UNL     1     -40.820   4.925  -0.879  1.00 20.00     0.142 A 
HETATM    4  C4  UNL     1     -41.950   6.333  -2.097  1.00 20.00     0.052 A 
HETATM    5  O7  UNL     1     -41.562   5.034  -2.012  1.00 20.00    -0.327 OA
ENDROOT
BRANCH   4   6
HETATM    6  C6  UNL     1     -42.776   6.690  -3.259  1.00 20.00     0.060 C 
HETATM    7  C5  UNL     1     -42.449   8.078  -3.828  1.00 20.00     0.012 C 
ENDBRANCH   4   6
TORSDOF 1
ENDMDL
MODEL 8
REMARK VINA RESULT:      -3.3      9.503     10.170
REMARK  1 active torsions:
REMARK  status: ('A' for Active; 'I' for Inactive)
REMARK    1  A    between atoms: C4_4  and  C6_6 
ROOT
HETATM    1  C1  UNL     1     -40.705   6.044  -0.229  1.00 20.00     0.027 A 
HETATM    2  C2  UNL     1     -41.119   4.749  -0.624  1.00 20.00     0.034 A 
HETATM    3  C3  UNL     1     -41.130   6.899  -1.219  1.00 20.00     0.142 A 
HETATM    4  C4  UNL     1     -41.768   4.906  -1.826  1.00 20.00     0.052 A 
HETATM    5  O7  UNL     1     -41.779   6.213  -2.197  1.00 20.00    -0.327 OA
ENDROOT
BRANCH   4   6
HETATM    6  C6  UNL     1     -42.422   3.964  -2.745  1.00 20.00     0.060 C 
HETATM    7  C5  UNL     1     -41.573   2.719  -3.038  1.00 20.00     0.012 C 
ENDBRANCH   4   6
TORSDOF 1
ENDMDL
MODEL 9
REMARK VINA RESULT:      -3.2      1.659      2.511
REMARK  1 active torsions:
REMARK  status: ('A' for Active; 'I' for Inactive)
REMARK    1  A    between atoms: C4_4  and  C6_6 
ROOT
HETATM    1  C1  UNL     1     -35.276   4.149   5.130  1.00 20.00     0.027 A 
HETATM    2  C2  UNL     1     -34.531   4.845   6.111  1.00 20.00     0.034 A 
HETATM    3  C3  UNL     1     -35.205   4.909   3.985  1.00 20.00     0.142 A 
HETATM    4  C4  UNL     1     -34.057   5.981   5.496  1.00 20.00     0.052 A 
HETATM    5  O7  UNL     1     -34.463   6.027   4.200  1.00 20.00    -0.327 OA
ENDROOT
BRANCH   4   6
HETATM    6  C6  UNL     1     -33.230   7.104   5.959  1.00 20.00     0.060 C 
HETATM    7  C5  UNL     1     -33.653   7.636   7.335  1.00 20.00     0.012 C 
ENDBRANCH   4   6
TORSDOF 1
ENDMDL
