MODEL 1
REMARK VINA RESULT:      -5.4      0.000      0.000
REMARK  3 active torsions:
REMARK  status: ('A' for Active; 'I' for Inactive)
REMARK    1  A    between atoms: C5_5  and  O9_9 
REMARK    2  A    between atoms: C6_6  and  O10_10 
REMARK    3  A    between atoms: C8_8  and  O10_10 
ROOT
HETATM    1  C1  UNL     1     -35.206   4.226   5.872  1.00 20.00     0.003 A 
HETATM    2  C2  UNL     1     -35.244   4.275   4.478  1.00 20.00     0.003 A 
HETATM    3  C3  UNL     1     -34.537   5.220   6.586  1.00 20.00     0.039 A 
HETATM    4  C4  UNL     1     -34.611   5.316   3.800  1.00 20.00     0.039 A 
HETATM    5  C5  UNL     1     -33.904   6.260   5.908  1.00 20.00     0.099 A 
HETATM    6  C6  UNL     1     -33.941   6.310   4.514  1.00 20.00     0.101 A 
ENDROOT
BRANCH   6   7
HETATM    7  O10 UNL     1     -33.327   7.321   3.840  1.00 20.00    -0.349 OA
BRANCH   7   8
HETATM    8  C8  UNL     1     -32.297   6.956   2.922  1.00 20.00     0.171 C 
HETATM    9  C7  UNL     1     -32.015   8.127   2.006  1.00 20.00     0.034 C 
ENDBRANCH   7   8
ENDBRANCH   6   7
BRANCH   5  10
HETATM   10  O9  UNL     1     -33.252   7.224   6.617  1.00 20.00    -0.358 OA
HETATM   11  H20 UNL     1     -33.665   8.088   6.466  1.00 20.00     0.217 HD
ENDBRANCH   5  10
TORSDOF 3
ENDMDL
MODEL 2
REMARK VINA RESULT:      -5.2      1.034      2.187
REMARK  3 active torsions:
REMARK  status: ('A' for Active; 'I' for Inactive)
REMARK    1  A    between atoms: C5_5  and  O9_9 
REMARK    2  A    between atoms: C6_6  and  O10_10 
REMARK    3  A    between atoms: C8_8  and  O10_10 
ROOT
HETATM    1  C1  UNL     1     -35.013   4.445   6.037  1.00 20.00     0.003 A 
HETATM    2  C2  UNL     1     -34.426   5.598   6.557  1.00 20.00     0.003 A 
HETATM    3  C3  UNL     1     -35.080   4.258   4.656  1.00 20.00     0.039 A 
HETATM    4  C4  UNL     1     -33.907   6.565   5.697  1.00 20.00     0.039 A 
HETATM    5  C5  UNL     1     -34.562   5.226   3.796  1.00 20.00     0.099 A 
HETATM    6  C6  UNL     1     -33.975   6.380   4.316  1.00 20.00     0.101 A 
ENDROOT
BRANCH   6   7
HETATM    7  O10 UNL     1     -33.466   7.332   3.486  1.00 20.00    -0.349 OA
BRANCH   7   8
HETATM    8  C8  UNL     1     -32.103   7.184   3.089  1.00 20.00     0.171 C 
HETATM    9  C7  UNL     1     -31.819   8.131   1.943  1.00 20.00     0.034 C 
ENDBRANCH   7   8
ENDBRANCH   6   7
BRANCH   5  10
HETATM   10  O9  UNL     1     -34.634   5.033   2.449  1.00 20.00    -0.358 OA
HETATM   11  H20 UNL     1     -33.830   4.596   2.130  1.00 20.00     0.217 HD
ENDBRANCH   5  10
TORSDOF 3
ENDMDL
MODEL 3
REMARK VINA RESULT:      -4.5     11.926     12.303
REMARK  3 active torsions:
REMARK  status: ('A' for Active; 'I' for Inactive)
REMARK    1  A    between atoms: C5_5  and  O9_9 
REMARK    2  A    between atoms: C6_6  and  O10_10 
REMARK    3  A    between atoms: C8_8  and  O10_10 
ROOT
HETATM    1  C1  UNL     1     -35.354  13.435  -4.495  1.00 20.00     0.003 A 
HETATM    2  C2  UNL     1     -36.144  14.364  -3.817  1.00 20.00     0.003 A 
HETATM    3  C3  UNL     1     -33.963  13.527  -4.435  1.00 20.00     0.039 A 
HETATM    4  C4  UNL     1     -35.543  15.384  -3.080  1.00 20.00     0.039 A 
HETATM    5  C5  UNL     1     -33.363  14.548  -3.699  1.00 20.00     0.099 A 
HETATM    6  C6  UNL     1     -34.153  15.477  -3.021  1.00 20.00     0.101 A 
ENDROOT
BRANCH   6   7
HETATM    7  O10 UNL     1     -33.578  16.478  -2.299  1.00 20.00    -0.349 OA
BRANCH   7   8
HETATM    8  C8  UNL     1     -34.241  16.877  -1.101  1.00 20.00     0.171 C 
HETATM    9  C7  UNL     1     -33.459  18.000  -0.454  1.00 20.00     0.034 C 
ENDBRANCH   7   8
ENDBRANCH   6   7
BRANCH   5  10
HETATM   10  O9  UNL     1     -32.004  14.627  -3.650  1.00 20.00    -0.358 OA
HETATM   11  H20 UNL     1     -31.607  13.946  -4.215  1.00 20.00     0.217 HD
ENDBRANCH   5  10
TORSDOF 3
ENDMDL
MODEL 4
REMARK VINA RESULT:      -4.5     11.603     12.682
REMARK  3 active torsions:
REMARK  status: ('A' for Active; 'I' for Inactive)
REMARK    1  A    between atoms: C5_5  and  O9_9 
REMARK    2  A    between atoms: C6_6  and  O10_10 
REMARK    3  A    between atoms: C8_8  and  O10_10 
ROOT
HETATM    1  C1  UNL     1     -32.934  15.153  -3.494  1.00 20.00     0.003 A 
HETATM    2  C2  UNL     1     -33.775  16.186  -3.079  1.00 20.00     0.003 A 
HETATM    3  C3  UNL     1     -33.474  13.927  -3.881  1.00 20.00     0.039 A 
HETATM    4  C4  UNL     1     -35.155  15.992  -3.051  1.00 20.00     0.039 A 
HETATM    5  C5  UNL     1     -34.855  13.733  -3.852  1.00 20.00     0.099 A 
HETATM    6  C6  UNL     1     -35.696  14.766  -3.437  1.00 20.00     0.101 A 
ENDROOT
BRANCH   6   7
HETATM    7  O10 UNL     1     -37.046  14.588  -3.404  1.00 20.00    -0.349 OA
BRANCH   7   8
HETATM    8  C8  UNL     1     -37.797  15.121  -4.494  1.00 20.00     0.171 C 
HETATM    9  C7  UNL     1     -39.251  14.737  -4.325  1.00 20.00     0.034 C 
ENDBRANCH   7   8
ENDBRANCH   6   7
BRANCH   5  10
HETATM   10  O9  UNL     1     -35.370  12.530  -4.231  1.00 20.00    -0.358 OA
HETATM   11  H20 UNL     1     -36.304  12.470  -3.975  1.00 20.00     0.217 HD
ENDBRANCH   5  10
TORSDOF 3
ENDMDL
MODEL 5
REMARK VINA RESULT:      -4.5     12.019     13.236
REMARK  3 active torsions:
REMARK  status: ('A' for Active; 'I' for Inactive)
REMARK    1  A    between atoms: C5_5  and  O9_9 
REMARK    2  A    between atoms: C6_6  and  O10_10 
REMARK    3  A    between atoms: C8_8  and  O10_10 
ROOT
HETATM    1  C1  UNL     1     -34.522  14.961  -6.925  1.00 20.00     0.003 A 
HETATM    2  C2  UNL     1     -34.102  16.128  -6.285  1.00 20.00     0.003 A 
HETATM    3  C3  UNL     1     -34.890  13.846  -6.172  1.00 20.00     0.039 A 
HETATM    4  C4  UNL     1     -34.049  16.178  -4.893  1.00 20.00     0.039 A 
HETATM    5  C5  UNL     1     -34.835  13.897  -4.780  1.00 20.00     0.099 A 
HETATM    6  C6  UNL     1     -34.415  15.063  -4.139  1.00 20.00     0.101 A 
ENDROOT
BRANCH   6   7
HETATM    7  O10 UNL     1     -34.358  15.125  -2.780  1.00 20.00    -0.349 OA
BRANCH   7   8
HETATM    8  C8  UNL     1     -33.885  16.342  -2.206  1.00 20.00     0.171 C 
HETATM    9  C7  UNL     1     -34.623  16.594  -0.908  1.00 20.00     0.034 C 
ENDBRANCH   7   8
ENDBRANCH   6   7
BRANCH   5  10
HETATM   10  O9  UNL     1     -35.196  12.801  -4.056  1.00 20.00    -0.358 OA
HETATM   11  H20 UNL     1     -35.965  12.370  -4.459  1.00 20.00     0.217 HD
ENDBRANCH   5  10
TORSDOF 3
ENDMDL
MODEL 6
REMARK VINA RESULT:      -4.3     11.735     13.575
REMARK  3 active torsions:
REMARK  status: ('A' for Active; 'I' for Inactive)
REMARK    1  A    between atoms: C5_5  and  O9_9 
REMARK    2  A    between atoms: C6_6  and  O10_10 
REMARK    3  A    between atoms: C8_8  and  O10_10 
ROOT
HETATM    1  C1  UNL     1     -33.292  15.652  -3.553  1.00 20.00     0.003 A 
HETATM    2  C2  UNL     1     -33.309  16.277  -4.801  1.00 20.00     0.003 A 
HETATM    3  C3  UNL     1     -33.925  14.420  -3.382  1.00 20.00     0.039 A 
HETATM    4  C4  UNL     1     -33.959  15.671  -5.875  1.00 20.00     0.039 A 
HETATM    5  C5  UNL     1     -34.576  13.815  -4.457  1.00 20.00     0.099 A 
HETATM    6  C6  UNL     1     -34.593  14.440  -5.704  1.00 20.00     0.101 A 
ENDROOT
BRANCH   6   7
HETATM    7  O10 UNL     1     -35.226  13.860  -6.761  1.00 20.00    -0.349 OA
BRANCH   7   8
HETATM    8  C8  UNL     1     -35.628  14.718  -7.827  1.00 20.00     0.171 C 
HETATM    9  C7  UNL     1     -37.106  15.015  -7.689  1.00 20.00     0.034 C 
ENDBRANCH   7   8
ENDBRANCH   6   7
BRANCH   5  10
HETATM   10  O9  UNL     1     -35.191  12.613  -4.276  1.00 20.00    -0.358 OA
HETATM   11  H20 UNL     1     -35.884  12.487  -4.944  1.00 20.00     0.217 HD
ENDBRANCH   5  10
TORSDOF 3
ENDMDL
MODEL 7
REMARK VINA RESULT:      -4.3     11.961     12.327
REMARK  3 active torsions:
REMARK  status: ('A' for Active; 'I' for Inactive)
REMARK    1  A    between atoms: C5_5  and  O9_9 
REMARK    2  A    between atoms: C6_6  and  O10_10 
REMARK    3  A    between atoms: C8_8  and  O10_10 
ROOT
HETATM    1  C1  UNL     1     -34.270  13.506  -4.488  1.00 20.00     0.003 A 
HETATM    2  C2  UNL     1     -33.273  14.298  -3.917  1.00 20.00     0.003 A 
HETATM    3  C3  UNL     1     -35.611  13.756  -4.195  1.00 20.00     0.039 A 
HETATM    4  C4  UNL     1     -33.617  15.337  -3.054  1.00 20.00     0.039 A 
HETATM    5  C5  UNL     1     -35.954  14.794  -3.330  1.00 20.00     0.099 A 
HETATM    6  C6  UNL     1     -34.957  15.586  -2.760  1.00 20.00     0.101 A 
ENDROOT
BRANCH   6   7
HETATM    7  O10 UNL     1     -35.280  16.603  -1.913  1.00 20.00    -0.349 OA
BRANCH   7   8
HETATM    8  C8  UNL     1     -34.296  16.985  -0.954  1.00 20.00     0.171 C 
HETATM    9  C7  UNL     1     -34.985  17.336   0.347  1.00 20.00     0.034 C 
ENDBRANCH   7   8
ENDBRANCH   6   7
BRANCH   5  10
HETATM   10  O9  UNL     1     -37.267  15.027  -3.051  1.00 20.00    -0.358 OA
HETATM   11  H20 UNL     1     -37.795  14.990  -3.864  1.00 20.00     0.217 HD
ENDBRANCH   5  10
TORSDOF 3
ENDMDL
MODEL 8
REMARK VINA RESULT:      -4.3      9.997     11.275
REMARK  3 active torsions:
REMARK  status: ('A' for Active; 'I' for Inactive)
REMARK    1  A    between atoms: C5_5  and  O9_9 
REMARK    2  A    between atoms: C6_6  and  O10_10 
REMARK    3  A    between atoms: C8_8  and  O10_10 
ROOT
HETATM    1  C1  UNL     1     -41.122   7.043  -0.867  1.00 20.00     0.003 A 
HETATM    2  C2  UNL     1     -40.690   5.768  -0.501  1.00 20.00     0.003 A 
HETATM    3  C3  UNL     1     -41.978   7.203  -1.956  1.00 20.00     0.039 A 
HETATM    4  C4  UNL     1     -41.115   4.654  -1.224  1.00 20.00     0.039 A 
HETATM    5  C5  UNL     1     -42.401   6.090  -2.680  1.00 20.00     0.099 A 
HETATM    6  C6  UNL     1     -41.970   4.814  -2.314  1.00 20.00     0.101 A 
ENDROOT
BRANCH   6   7
HETATM    7  O10 UNL     1     -42.376   3.718  -3.014  1.00 20.00    -0.349 OA
BRANCH   7   8
HETATM    8  C8  UNL     1     -41.468   2.620  -3.083  1.00 20.00     0.171 C 
HETATM    9  C7  UNL     1     -41.914   1.680  -4.182  1.00 20.00     0.034 C 
ENDBRANCH   7   8
ENDBRANCH   6   7
BRANCH   5  10
HETATM   10  O9  UNL     1     -43.237   6.259  -3.743  1.00 20.00    -0.358 OA
HETATM   11  H20 UNL     1     -43.810   7.028  -3.599  1.00 20.00     0.217 HD
ENDBRANCH   5  10
TORSDOF 3
ENDMDL
MODEL 9
REMARK VINA RESULT:      -4.1     11.773     13.075
REMARK  3 active torsions:
REMARK  status: ('A' for Active; 'I' for Inactive)
REMARK    1  A    between atoms: C5_5  and  O9_9 
REMARK    2  A    between atoms: C6_6  and  O10_10 
REMARK    3  A    between atoms: C8_8  and  O10_10 
ROOT
HETATM    1  C1  UNL     1     -34.825  13.910  -5.868  1.00 20.00     0.003 A 
HETATM    2  C2  UNL     1     -34.983  13.394  -4.581  1.00 20.00     0.003 A 
HETATM    3  C3  UNL     1     -34.242  15.164  -6.050  1.00 20.00     0.039 A 
HETATM    4  C4  UNL     1     -34.558  14.133  -3.478  1.00 20.00     0.039 A 
HETATM    5  C5  UNL     1     -33.819  15.903  -4.947  1.00 20.00     0.099 A 
HETATM    6  C6  UNL     1     -33.976  15.387  -3.660  1.00 20.00     0.101 A 
ENDROOT
BRANCH   6   7
HETATM    7  O10 UNL     1     -33.567  16.100  -2.573  1.00 20.00    -0.349 OA
BRANCH   7   8
HETATM    8  C8  UNL     1     -34.521  16.297  -1.531  1.00 20.00     0.171 C 
HETATM    9  C7  UNL     1     -34.025  17.391  -0.610  1.00 20.00     0.034 C 
ENDBRANCH   7   8
ENDBRANCH   6   7
BRANCH   5  10
HETATM   10  O9  UNL     1     -33.252  17.127  -5.138  1.00 20.00    -0.358 OA
HETATM   11  H20 UNL     1     -32.338  17.028  -5.449  1.00 20.00     0.217 HD
ENDBRANCH   5  10
TORSDOF 3
ENDMDL
