MODEL 1
REMARK VINA RESULT:      -5.2      0.000      0.000
REMARK  0 active torsions:
REMARK  status: ('A' for Active; 'I' for Inactive)
ROOT
HETATM    1  C1  UNL     1     -35.191   4.891   5.960  1.00 20.00     0.001 A 
HETATM    2  C2  UNL     1     -34.333   5.849   6.499  1.00 20.00     0.001 A 
HETATM    3  C3  UNL     1     -35.198   4.657   4.585  1.00 20.00     0.008 A 
HETATM    4  C4  UNL     1     -33.482   6.574   5.664  1.00 20.00     0.019 A 
HETATM    5  C5  UNL     1     -34.348   5.381   3.750  1.00 20.00    -0.045 A 
HETATM    6  C6  UNL     1     -33.490   6.340   4.289  1.00 20.00     0.012 A 
HETATM    7  C7  UNL     1     -34.399   5.086   2.285  1.00 20.00     0.049 C 
HETATM    8  I8  UNL     1     -32.189   7.460   3.093  1.00 20.00    -0.044 I 
ENDROOT
TORSDOF 0
ENDMDL
MODEL 2
REMARK VINA RESULT:      -5.1      0.669      2.487
REMARK  0 active torsions:
REMARK  status: ('A' for Active; 'I' for Inactive)
ROOT
HETATM    1  C1  UNL     1     -35.310   4.367   5.848  1.00 20.00     0.001 A 
HETATM    2  C2  UNL     1     -35.128   4.195   4.475  1.00 20.00     0.001 A 
HETATM    3  C3  UNL     1     -34.661   5.409   6.511  1.00 20.00     0.008 A 
HETATM    4  C4  UNL     1     -34.297   5.064   3.767  1.00 20.00     0.019 A 
HETATM    5  C5  UNL     1     -33.831   6.277   5.803  1.00 20.00    -0.045 A 
HETATM    6  C6  UNL     1     -33.648   6.105   4.431  1.00 20.00     0.012 A 
HETATM    7  C7  UNL     1     -33.163   7.375   6.568  1.00 20.00     0.049 C 
HETATM    8  I8  UNL     1     -32.418   7.371   3.310  1.00 20.00    -0.044 I 
ENDROOT
TORSDOF 0
ENDMDL
MODEL 3
REMARK VINA RESULT:      -3.9     12.542     13.591
REMARK  0 active torsions:
REMARK  status: ('A' for Active; 'I' for Inactive)
ROOT
HETATM    1  C1  UNL     1     -33.532  13.776  -3.865  1.00 20.00     0.001 A 
HETATM    2  C2  UNL     1     -32.996  15.037  -3.601  1.00 20.00     0.001 A 
HETATM    3  C3  UNL     1     -34.353  13.587  -4.977  1.00 20.00     0.008 A 
HETATM    4  C4  UNL     1     -33.280  16.107  -4.448  1.00 20.00     0.019 A 
HETATM    5  C5  UNL     1     -34.637  14.658  -5.824  1.00 20.00    -0.045 A 
HETATM    6  C6  UNL     1     -34.100  15.919  -5.560  1.00 20.00     0.012 A 
HETATM    7  C7  UNL     1     -35.521  14.395  -7.001  1.00 20.00     0.049 C 
HETATM    8  I8  UNL     1     -34.485  17.566  -6.790  1.00 20.00    -0.044 I 
ENDROOT
TORSDOF 0
ENDMDL
MODEL 4
REMARK VINA RESULT:      -3.9     12.177     13.381
REMARK  0 active torsions:
REMARK  status: ('A' for Active; 'I' for Inactive)
ROOT
HETATM    1  C1  UNL     1     -34.733  13.304  -4.548  1.00 20.00     0.001 A 
HETATM    2  C2  UNL     1     -34.806  13.861  -5.825  1.00 20.00     0.001 A 
HETATM    3  C3  UNL     1     -34.402  14.106  -3.456  1.00 20.00     0.008 A 
HETATM    4  C4  UNL     1     -34.549  15.220  -6.009  1.00 20.00     0.019 A 
HETATM    5  C5  UNL     1     -34.145  15.465  -3.640  1.00 20.00    -0.045 A 
HETATM    6  C6  UNL     1     -34.219  16.022  -4.917  1.00 20.00     0.012 A 
HETATM    7  C7  UNL     1     -33.798  16.275  -2.432  1.00 20.00     0.049 C 
HETATM    8  I8  UNL     1     -33.847  18.051  -5.263  1.00 20.00    -0.044 I 
ENDROOT
TORSDOF 0
ENDMDL
MODEL 5
REMARK VINA RESULT:      -3.9     12.694     13.828
REMARK  0 active torsions:
REMARK  status: ('A' for Active; 'I' for Inactive)
ROOT
HETATM    1  C1  UNL     1     -33.170  14.882  -3.508  1.00 20.00     0.001 A 
HETATM    2  C2  UNL     1     -33.823  13.726  -3.937  1.00 20.00     0.001 A 
HETATM    3  C3  UNL     1     -33.216  16.038  -4.287  1.00 20.00     0.008 A 
HETATM    4  C4  UNL     1     -34.521  13.726  -5.145  1.00 20.00     0.019 A 
HETATM    5  C5  UNL     1     -33.915  16.038  -5.495  1.00 20.00    -0.045 A 
HETATM    6  C6  UNL     1     -34.567  14.882  -5.924  1.00 20.00     0.012 A 
HETATM    7  C7  UNL     1     -33.930  17.307  -6.286  1.00 20.00     0.049 C 
HETATM    8  I8  UNL     1     -35.632  14.814  -7.723  1.00 20.00    -0.044 I 
ENDROOT
TORSDOF 0
ENDMDL
MODEL 6
REMARK VINA RESULT:      -3.9      9.095     10.204
REMARK  0 active torsions:
REMARK  status: ('A' for Active; 'I' for Inactive)
ROOT
HETATM    1  C1  UNL     1     -40.742   4.978  -0.419  1.00 20.00     0.001 A 
HETATM    2  C2  UNL     1     -40.629   6.367  -0.370  1.00 20.00     0.001 A 
HETATM    3  C3  UNL     1     -41.544   4.378  -1.390  1.00 20.00     0.008 A 
HETATM    4  C4  UNL     1     -41.318   7.156  -1.291  1.00 20.00     0.019 A 
HETATM    5  C5  UNL     1     -42.232   5.166  -2.311  1.00 20.00    -0.045 A 
HETATM    6  C6  UNL     1     -42.120   6.556  -2.263  1.00 20.00     0.012 A 
HETATM    7  C7  UNL     1     -43.075   4.467  -3.329  1.00 20.00     0.049 C 
HETATM    8  I8  UNL     1     -43.124   7.797  -3.614  1.00 20.00    -0.044 I 
ENDROOT
TORSDOF 0
ENDMDL
MODEL 7
REMARK VINA RESULT:      -3.9      9.034     10.206
REMARK  0 active torsions:
REMARK  status: ('A' for Active; 'I' for Inactive)
ROOT
HETATM    1  C1  UNL     1     -40.839   7.041  -0.524  1.00 20.00     0.001 A 
HETATM    2  C2  UNL     1     -40.496   5.746  -0.136  1.00 20.00     0.001 A 
HETATM    3  C3  UNL     1     -41.692   7.240  -1.610  1.00 20.00     0.008 A 
HETATM    4  C4  UNL     1     -41.003   4.651  -0.835  1.00 20.00     0.019 A 
HETATM    5  C5  UNL     1     -42.200   6.145  -2.308  1.00 20.00    -0.045 A 
HETATM    6  C6  UNL     1     -41.856   4.849  -1.921  1.00 20.00     0.012 A 
HETATM    7  C7  UNL     1     -43.110   6.420  -3.462  1.00 20.00     0.049 C 
HETATM    8  I8  UNL     1     -42.582   3.164  -2.923  1.00 20.00    -0.044 I 
ENDROOT
TORSDOF 0
ENDMDL
MODEL 8
REMARK VINA RESULT:      -3.8     11.894     12.368
REMARK  0 active torsions:
REMARK  status: ('A' for Active; 'I' for Inactive)
ROOT
HETATM    1  C1  UNL     1     -34.813  13.272  -4.672  1.00 20.00     0.001 A 
HETATM    2  C2  UNL     1     -33.620  13.608  -4.033  1.00 20.00     0.001 A 
HETATM    3  C3  UNL     1     -35.972  14.005  -4.414  1.00 20.00     0.008 A 
HETATM    4  C4  UNL     1     -33.585  14.675  -3.136  1.00 20.00     0.019 A 
HETATM    5  C5  UNL     1     -35.937  15.072  -3.517  1.00 20.00    -0.045 A 
HETATM    6  C6  UNL     1     -34.743  15.408  -2.878  1.00 20.00     0.012 A 
HETATM    7  C7  UNL     1     -37.209  15.822  -3.281  1.00 20.00     0.049 C 
HETATM    8  I8  UNL     1     -34.622  16.997  -1.523  1.00 20.00    -0.044 I 
ENDROOT
TORSDOF 0
ENDMDL
MODEL 9
REMARK VINA RESULT:      -3.8     12.244     13.412
REMARK  0 active torsions:
REMARK  status: ('A' for Active; 'I' for Inactive)
ROOT
HETATM    1  C1  UNL     1     -34.777  13.962  -5.817  1.00 20.00     0.001 A 
HETATM    2  C2  UNL     1     -35.093  13.514  -4.534  1.00 20.00     0.001 A 
HETATM    3  C3  UNL     1     -34.279  15.252  -6.001  1.00 20.00     0.008 A 
HETATM    4  C4  UNL     1     -34.911  14.354  -3.436  1.00 20.00     0.019 A 
HETATM    5  C5  UNL     1     -34.096  16.092  -4.902  1.00 20.00    -0.045 A 
HETATM    6  C6  UNL     1     -34.412  15.644  -3.620  1.00 20.00     0.012 A 
HETATM    7  C7  UNL     1     -33.557  17.463  -5.161  1.00 20.00     0.049 C 
HETATM    8  I8  UNL     1     -34.162  16.852  -1.931  1.00 20.00    -0.044 I 
ENDROOT
TORSDOF 0
ENDMDL
