MODEL 1
REMARK VINA RESULT:      -3.2      0.000      0.000
REMARK  0 active torsions:
REMARK  status: ('A' for Active; 'I' for Inactive)
ROOT
HETATM    1  C1  UNL     1     -34.024   6.457   6.471  1.00 20.00     0.021 C 
HETATM    2  C2  UNL     1     -34.793   4.291   5.443  1.00 20.00     0.021 C 
HETATM    3  C3  UNL     1     -34.608   5.791   5.228  1.00 20.00     0.045 C 
HETATM    4  I4  UNL     1     -33.302   6.128   3.542  1.00 20.00    -0.086 I 
ENDROOT
TORSDOF 0
ENDMDL
MODEL 2
REMARK VINA RESULT:      -3.1      1.003      1.927
REMARK  0 active torsions:
REMARK  status: ('A' for Active; 'I' for Inactive)
ROOT
HETATM    1  C1  UNL     1     -35.380   5.290   4.070  1.00 20.00     0.021 C 
HETATM    2  C2  UNL     1     -34.140   6.254   6.037  1.00 20.00     0.021 C 
HETATM    3  C3  UNL     1     -34.016   5.480   4.728  1.00 20.00     0.045 C 
HETATM    4  I4  UNL     1     -32.701   6.537   3.381  1.00 20.00    -0.086 I 
ENDROOT
TORSDOF 0
ENDMDL
MODEL 3
REMARK VINA RESULT:      -2.9      1.945      2.558
REMARK  0 active torsions:
REMARK  status: ('A' for Active; 'I' for Inactive)
ROOT
HETATM    1  C1  UNL     1     -33.164   6.294   4.020  1.00 20.00     0.021 C 
HETATM    2  C2  UNL     1     -33.614   6.905   6.420  1.00 20.00     0.021 C 
HETATM    3  C3  UNL     1     -34.200   6.315   5.140  1.00 20.00     0.045 C 
HETATM    4  I4  UNL     1     -34.900   4.308   5.520  1.00 20.00    -0.086 I 
ENDROOT
TORSDOF 0
ENDMDL
MODEL 4
REMARK VINA RESULT:      -2.8      2.314      2.992
REMARK  0 active torsions:
REMARK  status: ('A' for Active; 'I' for Inactive)
ROOT
HETATM    1  C1  UNL     1     -34.648   5.315   2.921  1.00 20.00     0.021 C 
HETATM    2  C2  UNL     1     -32.725   6.566   3.957  1.00 20.00     0.021 C 
HETATM    3  C3  UNL     1     -34.198   6.188   4.089  1.00 20.00     0.045 C 
HETATM    4  I4  UNL     1     -34.513   5.134   5.946  1.00 20.00    -0.086 I 
ENDROOT
TORSDOF 0
ENDMDL
MODEL 5
REMARK VINA RESULT:      -2.7      1.986      2.239
REMARK  0 active torsions:
REMARK  status: ('A' for Active; 'I' for Inactive)
ROOT
HETATM    1  C1  UNL     1     -33.756   6.954   6.416  1.00 20.00     0.021 C 
HETATM    2  C2  UNL     1     -33.976   6.636   3.929  1.00 20.00     0.021 C 
HETATM    3  C3  UNL     1     -33.634   5.968   5.258  1.00 20.00     0.045 C 
HETATM    4  I4  UNL     1     -34.954   4.292   5.590  1.00 20.00    -0.086 I 
ENDROOT
TORSDOF 0
ENDMDL
MODEL 6
REMARK VINA RESULT:      -2.7      2.375      2.578
REMARK  0 active torsions:
REMARK  status: ('A' for Active; 'I' for Inactive)
ROOT
HETATM    1  C1  UNL     1     -33.260   6.420   3.892  1.00 20.00     0.021 C 
HETATM    2  C2  UNL     1     -35.638   5.831   3.313  1.00 20.00     0.021 C 
HETATM    3  C3  UNL     1     -34.333   5.336   3.930  1.00 20.00     0.045 C 
HETATM    4  I4  UNL     1     -34.679   4.728   5.972  1.00 20.00    -0.086 I 
ENDROOT
TORSDOF 0
ENDMDL
MODEL 7
REMARK VINA RESULT:      -2.6      1.777      2.284
REMARK  0 active torsions:
REMARK  status: ('A' for Active; 'I' for Inactive)
ROOT
HETATM    1  C1  UNL     1     -34.853   3.820   5.585  1.00 20.00     0.021 C 
HETATM    2  C2  UNL     1     -34.781   5.345   3.584  1.00 20.00     0.021 C 
HETATM    3  C3  UNL     1     -35.071   5.243   5.079  1.00 20.00     0.045 C 
HETATM    4  I4  UNL     1     -33.794   6.604   6.162  1.00 20.00    -0.086 I 
ENDROOT
TORSDOF 0
ENDMDL
MODEL 8
REMARK VINA RESULT:      -2.4      9.318      9.500
REMARK  0 active torsions:
REMARK  status: ('A' for Active; 'I' for Inactive)
ROOT
HETATM    1  C1  UNL     1     -41.121   7.066  -0.870  1.00 20.00     0.021 C 
HETATM    2  C2  UNL     1     -40.747   4.587  -1.097  1.00 20.00     0.021 C 
HETATM    3  C3  UNL     1     -41.157   5.717  -0.157  1.00 20.00     0.045 C 
HETATM    4  I4  UNL     1     -43.144   5.349   0.601  1.00 20.00    -0.086 I 
ENDROOT
TORSDOF 0
ENDMDL
MODEL 9
REMARK VINA RESULT:      -2.3     13.054     13.486
REMARK  0 active torsions:
REMARK  status: ('A' for Active; 'I' for Inactive)
ROOT
HETATM    1  C1  UNL     1     -33.907  16.200  -2.496  1.00 20.00     0.021 C 
HETATM    2  C2  UNL     1     -33.216  16.416  -4.908  1.00 20.00     0.021 C 
HETATM    3  C3  UNL     1     -33.317  15.480  -3.706  1.00 20.00     0.045 C 
HETATM    4  I4  UNL     1     -34.548  13.779  -4.211  1.00 20.00    -0.086 I 
ENDROOT
TORSDOF 0
ENDMDL
