MODEL 1
REMARK VINA RESULT:      -6.0      0.000      0.000
REMARK  0 active torsions:
REMARK  status: ('A' for Active; 'I' for Inactive)
ROOT
HETATM    1  C1  UNL     1     -35.286   4.297   5.782  1.00 20.00     0.001 A 
HETATM    2  C2  UNL     1     -34.779   5.216   6.704  1.00 20.00     0.003 A 
HETATM    3  C3  UNL     1     -34.961   4.385   4.421  1.00 20.00     0.014 A 
HETATM    4  C4  UNL     1     -33.930   6.253   6.305  1.00 20.00     0.038 A 
HETATM    5  C5  UNL     1     -33.559   5.839   2.756  1.00 20.00     0.046 A 
HETATM    6  C6  UNL     1     -34.109   5.420   3.996  1.00 20.00     0.000 A 
HETATM    7  C7  UNL     1     -33.624   6.314   4.946  1.00 20.00     0.086 A 
HETATM    8  C8  UNL     1     -32.787   6.945   3.028  1.00 20.00     0.050 A 
HETATM    9  C9  UNL     1     -31.967   7.828   2.186  1.00 20.00     0.077 C 
HETATM   10  O10 UNL     1     -32.820   7.242   4.354  1.00 20.00    -0.315 OA
ENDROOT
TORSDOF 0
ENDMDL
MODEL 2
REMARK VINA RESULT:      -4.6     10.146     11.109
REMARK  0 active torsions:
REMARK  status: ('A' for Active; 'I' for Inactive)
ROOT
HETATM    1  C1  UNL     1     -40.791   6.498  -0.412  1.00 20.00     0.001 A 
HETATM    2  C2  UNL     1     -41.570   7.377  -1.167  1.00 20.00     0.003 A 
HETATM    3  C3  UNL     1     -40.791   5.122  -0.680  1.00 20.00     0.014 A 
HETATM    4  C4  UNL     1     -42.375   6.919  -2.214  1.00 20.00     0.038 A 
HETATM    5  C5  UNL     1     -41.862   3.365  -2.298  1.00 20.00     0.046 A 
HETATM    6  C6  UNL     1     -41.593   4.638  -1.728  1.00 20.00     0.000 A 
HETATM    7  C7  UNL     1     -42.354   5.547  -2.456  1.00 20.00     0.086 A 
HETATM    8  C8  UNL     1     -42.757   3.579  -3.321  1.00 20.00     0.050 A 
HETATM    9  C9  UNL     1     -43.416   2.684  -4.281  1.00 20.00     0.077 C 
HETATM   10  O10 UNL     1     -43.062   4.900  -3.425  1.00 20.00    -0.315 OA
ENDROOT
TORSDOF 0
ENDMDL
MODEL 3
REMARK VINA RESULT:      -4.5     11.858     13.919
REMARK  0 active torsions:
REMARK  status: ('A' for Active; 'I' for Inactive)
ROOT
HETATM    1  C1  UNL     1     -34.328  13.350  -4.726  1.00 20.00     0.001 A 
HETATM    2  C2  UNL     1     -33.459  13.812  -3.735  1.00 20.00     0.003 A 
HETATM    3  C3  UNL     1     -34.775  14.198  -5.749  1.00 20.00     0.014 A 
HETATM    4  C4  UNL     1     -33.002  15.134  -3.728  1.00 20.00     0.038 A 
HETATM    5  C5  UNL     1     -34.537  16.664  -6.593  1.00 20.00     0.046 A 
HETATM    6  C6  UNL     1     -34.329  15.531  -5.762  1.00 20.00     0.000 A 
HETATM    7  C7  UNL     1     -33.463  15.953  -4.758  1.00 20.00     0.086 A 
HETATM    8  C8  UNL     1     -33.796  17.687  -6.047  1.00 20.00     0.050 A 
HETATM    9  C9  UNL     1     -33.589  19.090  -6.430  1.00 20.00     0.077 C 
HETATM   10  O10 UNL     1     -33.140  17.266  -4.934  1.00 20.00    -0.315 OA
ENDROOT
TORSDOF 0
ENDMDL
MODEL 4
REMARK VINA RESULT:      -4.5     11.581     12.672
REMARK  0 active torsions:
REMARK  status: ('A' for Active; 'I' for Inactive)
ROOT
HETATM    1  C1  UNL     1     -33.170  14.972  -3.433  1.00 20.00     0.001 A 
HETATM    2  C2  UNL     1     -33.468  13.695  -3.911  1.00 20.00     0.003 A 
HETATM    3  C3  UNL     1     -34.187  15.896  -3.156  1.00 20.00     0.014 A 
HETATM    4  C4  UNL     1     -34.789  13.291  -4.130  1.00 20.00     0.038 A 
HETATM    5  C5  UNL     1     -36.794  16.127  -3.215  1.00 20.00     0.046 A 
HETATM    6  C6  UNL     1     -35.523  15.512  -3.368  1.00 20.00     0.000 A 
HETATM    7  C7  UNL     1     -35.778  14.230  -3.845  1.00 20.00     0.086 A 
HETATM    8  C8  UNL     1     -37.726  15.193  -3.604  1.00 20.00     0.050 A 
HETATM    9  C9  UNL     1     -39.193  15.211  -3.677  1.00 20.00     0.077 C 
HETATM   10  O10 UNL     1     -37.121  14.039  -3.988  1.00 20.00    -0.315 OA
ENDROOT
TORSDOF 0
ENDMDL
MODEL 5
REMARK VINA RESULT:      -4.4     11.958     13.162
REMARK  0 active torsions:
REMARK  status: ('A' for Active; 'I' for Inactive)
ROOT
HETATM    1  C1  UNL     1     -34.883  13.762  -5.198  1.00 20.00     0.001 A 
HETATM    2  C2  UNL     1     -34.357  14.725  -6.062  1.00 20.00     0.003 A 
HETATM    3  C3  UNL     1     -34.971  13.999  -3.819  1.00 20.00     0.014 A 
HETATM    4  C4  UNL     1     -33.903  15.958  -5.585  1.00 20.00     0.038 A 
HETATM    5  C5  UNL     1     -34.440  15.840  -2.035  1.00 20.00     0.046 A 
HETATM    6  C6  UNL     1     -34.520  15.232  -3.316  1.00 20.00     0.000 A 
HETATM    7  C7  UNL     1     -34.004  16.165  -4.210  1.00 20.00     0.086 A 
HETATM    8  C8  UNL     1     -33.888  17.085  -2.230  1.00 20.00     0.050 A 
HETATM    9  C9  UNL     1     -33.550  18.186  -1.318  1.00 20.00     0.077 C 
HETATM   10  O10 UNL     1     -33.620  17.292  -3.546  1.00 20.00    -0.315 OA
ENDROOT
TORSDOF 0
ENDMDL
MODEL 6
REMARK VINA RESULT:      -4.4     11.736     13.082
REMARK  0 active torsions:
REMARK  status: ('A' for Active; 'I' for Inactive)
ROOT
HETATM    1  C1  UNL     1     -34.448  14.670  -6.159  1.00 20.00     0.001 A 
HETATM    2  C2  UNL     1     -34.897  13.675  -5.289  1.00 20.00     0.003 A 
HETATM    3  C3  UNL     1     -34.026  15.916  -5.676  1.00 20.00     0.014 A 
HETATM    4  C4  UNL     1     -34.941  13.883  -3.907  1.00 20.00     0.038 A 
HETATM    5  C5  UNL     1     -33.732  17.232  -3.432  1.00 20.00     0.046 A 
HETATM    6  C6  UNL     1     -34.061  16.149  -4.289  1.00 20.00     0.000 A 
HETATM    7  C7  UNL     1     -34.515  15.131  -3.456  1.00 20.00     0.086 A 
HETATM    8  C8  UNL     1     -34.003  16.809  -2.151  1.00 20.00     0.050 A 
HETATM    9  C9  UNL     1     -33.879  17.451  -0.835  1.00 20.00     0.077 C 
HETATM   10  O10 UNL     1     -34.478  15.536  -2.154  1.00 20.00    -0.315 OA
ENDROOT
TORSDOF 0
ENDMDL
MODEL 7
REMARK VINA RESULT:      -4.4     11.806     12.562
REMARK  0 active torsions:
REMARK  status: ('A' for Active; 'I' for Inactive)
ROOT
HETATM    1  C1  UNL     1     -33.855  13.471  -4.269  1.00 20.00     0.001 A 
HETATM    2  C2  UNL     1     -35.239  13.430  -4.453  1.00 20.00     0.003 A 
HETATM    3  C3  UNL     1     -33.255  14.493  -3.520  1.00 20.00     0.014 A 
HETATM    4  C4  UNL     1     -36.075  14.403  -3.897  1.00 20.00     0.038 A 
HETATM    5  C5  UNL     1     -33.869  16.641  -2.156  1.00 20.00     0.046 A 
HETATM    6  C6  UNL     1     -34.076  15.483  -2.952  1.00 20.00     0.000 A 
HETATM    7  C7  UNL     1     -35.450  15.407  -3.158  1.00 20.00     0.086 A 
HETATM    8  C8  UNL     1     -35.113  17.185  -1.932  1.00 20.00     0.050 A 
HETATM    9  C9  UNL     1     -35.571  18.369  -1.193  1.00 20.00     0.077 C 
HETATM   10  O10 UNL     1     -36.079  16.444  -2.536  1.00 20.00    -0.315 OA
ENDROOT
TORSDOF 0
ENDMDL
MODEL 8
REMARK VINA RESULT:      -4.3     12.148     13.202
REMARK  0 active torsions:
REMARK  status: ('A' for Active; 'I' for Inactive)
ROOT
HETATM    1  C1  UNL     1     -34.271  17.803  -0.199  1.00 20.00     0.001 A 
HETATM    2  C2  UNL     1     -33.737  18.799  -1.019  1.00 20.00     0.003 A 
HETATM    3  C3  UNL     1     -34.634  16.554  -0.722  1.00 20.00     0.014 A 
HETATM    4  C4  UNL     1     -33.546  18.588  -2.388  1.00 20.00     0.038 A 
HETATM    5  C5  UNL     1     -34.682  15.232  -2.981  1.00 20.00     0.046 A 
HETATM    6  C6  UNL     1     -34.451  16.318  -2.096  1.00 20.00     0.000 A 
HETATM    7  C7  UNL     1     -33.916  17.337  -2.879  1.00 20.00     0.086 A 
HETATM    8  C8  UNL     1     -34.278  15.653  -4.227  1.00 20.00     0.050 A 
HETATM    9  C9  UNL     1     -34.258  15.008  -5.546  1.00 20.00     0.077 C 
HETATM   10  O10 UNL     1     -33.812  16.929  -4.176  1.00 20.00    -0.315 OA
ENDROOT
TORSDOF 0
ENDMDL
MODEL 9
REMARK VINA RESULT:      -4.2     11.923     13.194
REMARK  0 active torsions:
REMARK  status: ('A' for Active; 'I' for Inactive)
ROOT
HETATM    1  C1  UNL     1     -33.615  15.947  -5.303  1.00 20.00     0.001 A 
HETATM    2  C2  UNL     1     -34.166  14.773  -4.786  1.00 20.00     0.003 A 
HETATM    3  C3  UNL     1     -33.450  17.083  -4.499  1.00 20.00     0.014 A 
HETATM    4  C4  UNL     1     -34.569  14.687  -3.450  1.00 20.00     0.038 A 
HETATM    5  C5  UNL     1     -33.848  17.914  -2.049  1.00 20.00     0.046 A 
HETATM    6  C6  UNL     1     -33.848  17.020  -3.151  1.00 20.00     0.000 A 
HETATM    7  C7  UNL     1     -34.392  15.831  -2.674  1.00 20.00     0.086 A 
HETATM    8  C8  UNL     1     -34.384  17.222  -0.987  1.00 20.00     0.050 A 
HETATM    9  C9  UNL     1     -34.651  17.581   0.412  1.00 20.00     0.077 C 
HETATM   10  O10 UNL     1     -34.717  15.957  -1.356  1.00 20.00    -0.315 OA
ENDROOT
TORSDOF 0
ENDMDL
