MODEL 1
REMARK VINA RESULT:      -5.1      0.000      0.000
REMARK  3 active torsions:
REMARK  status: ('A' for Active; 'I' for Inactive)
REMARK    1  A    between atoms: C6_6  and  C9_9 
REMARK    2  A    between atoms: C8_8  and  C9_9 
REMARK    3  A    between atoms: C8_8  and  O10_10 
ROOT
HETATM    1  C1  UNL     1     -35.207   5.042   5.749  1.00 20.00     0.000 A 
HETATM    2  C2  UNL     1     -35.161   4.760   4.384  1.00 20.00     0.001 A 
HETATM    3  C3  UNL     1     -34.296   5.940   6.307  1.00 20.00     0.001 A 
HETATM    4  C4  UNL     1     -34.206   5.376   3.576  1.00 20.00     0.007 A 
HETATM    5  C5  UNL     1     -33.340   6.555   5.498  1.00 20.00     0.007 A 
HETATM    6  C6  UNL     1     -33.296   6.274   4.133  1.00 20.00    -0.052 A 
ENDROOT
BRANCH   6   7
HETATM    7  C9  UNL     1     -32.273   6.932   3.270  1.00 20.00     0.038 C 
HETATM    8  C7  UNL     1     -31.218   7.694   4.098  1.00 20.00     0.017 C 
BRANCH   7   9
HETATM    9  C8  UNL     1     -32.892   7.885   2.220  1.00 20.00     0.173 C 
BRANCH   9  10
HETATM   10  O10 UNL     1     -31.849   8.474   1.452  1.00 20.00    -0.400 OA
HETATM   11  H22 UNL     1     -31.227   7.762   1.236  1.00 20.00     0.209 HD
ENDBRANCH   9  10
ENDBRANCH   7   9
ENDBRANCH   6   7
TORSDOF 3
ENDMDL
MODEL 2
REMARK VINA RESULT:      -5.1      0.025      1.528
REMARK  3 active torsions:
REMARK  status: ('A' for Active; 'I' for Inactive)
REMARK    1  A    between atoms: C6_6  and  C9_9 
REMARK    2  A    between atoms: C8_8  and  C9_9 
REMARK    3  A    between atoms: C8_8  and  O10_10 
ROOT
HETATM    1  C1  UNL     1     -35.217   5.054   5.720  1.00 20.00     0.000 A 
HETATM    2  C2  UNL     1     -34.302   5.941   6.287  1.00 20.00     0.001 A 
HETATM    3  C3  UNL     1     -35.169   4.782   4.353  1.00 20.00     0.001 A 
HETATM    4  C4  UNL     1     -33.338   6.555   5.488  1.00 20.00     0.007 A 
HETATM    5  C5  UNL     1     -34.206   5.397   3.553  1.00 20.00     0.007 A 
HETATM    6  C6  UNL     1     -33.290   6.283   4.121  1.00 20.00    -0.052 A 
ENDROOT
BRANCH   6   7
HETATM    7  C9  UNL     1     -32.261   6.940   3.264  1.00 20.00     0.038 C 
HETATM    8  C7  UNL     1     -31.204   7.690   4.100  1.00 20.00     0.017 C 
BRANCH   7   9
HETATM    9  C8  UNL     1     -32.871   7.902   2.218  1.00 20.00     0.173 C 
BRANCH   9  10
HETATM   10  O10 UNL     1     -31.823   8.477   1.446  1.00 20.00    -0.400 OA
HETATM   11  H22 UNL     1     -32.057   9.409   1.310  1.00 20.00     0.209 HD
ENDBRANCH   9  10
ENDBRANCH   7   9
ENDBRANCH   6   7
TORSDOF 3
ENDMDL
MODEL 3
REMARK VINA RESULT:      -4.5     11.339     11.954
REMARK  3 active torsions:
REMARK  status: ('A' for Active; 'I' for Inactive)
REMARK    1  A    between atoms: C6_6  and  C9_9 
REMARK    2  A    between atoms: C8_8  and  C9_9 
REMARK    3  A    between atoms: C8_8  and  O10_10 
ROOT
HETATM    1  C1  UNL     1     -35.085  13.339  -4.411  1.00 20.00     0.000 A 
HETATM    2  C2  UNL     1     -33.738  13.556  -4.125  1.00 20.00     0.001 A 
HETATM    3  C3  UNL     1     -36.051  14.226  -3.936  1.00 20.00     0.001 A 
HETATM    4  C4  UNL     1     -33.356  14.662  -3.365  1.00 20.00     0.007 A 
HETATM    5  C5  UNL     1     -35.669  15.331  -3.175  1.00 20.00     0.007 A 
HETATM    6  C6  UNL     1     -34.321  15.549  -2.890  1.00 20.00    -0.052 A 
ENDROOT
BRANCH   6   7
HETATM    7  C9  UNL     1     -33.913  16.730  -2.076  1.00 20.00     0.038 C 
HETATM    8  C7  UNL     1     -34.588  16.740  -0.689  1.00 20.00     0.017 C 
BRANCH   7   9
HETATM    9  C8  UNL     1     -34.180  18.076  -2.790  1.00 20.00     0.173 C 
BRANCH   9  10
HETATM   10  O10 UNL     1     -33.525  18.072  -4.054  1.00 20.00    -0.400 OA
HETATM   11  H22 UNL     1     -34.215  17.944  -4.724  1.00 20.00     0.209 HD
ENDBRANCH   9  10
ENDBRANCH   7   9
ENDBRANCH   6   7
TORSDOF 3
ENDMDL
MODEL 4
REMARK VINA RESULT:      -4.4     11.344     11.970
REMARK  3 active torsions:
REMARK  status: ('A' for Active; 'I' for Inactive)
REMARK    1  A    between atoms: C6_6  and  C9_9 
REMARK    2  A    between atoms: C8_8  and  C9_9 
REMARK    3  A    between atoms: C8_8  and  O10_10 
ROOT
HETATM    1  C1  UNL     1     -35.049  13.343  -4.380  1.00 20.00     0.000 A 
HETATM    2  C2  UNL     1     -36.046  14.211  -3.936  1.00 20.00     0.001 A 
HETATM    3  C3  UNL     1     -33.712  13.601  -4.074  1.00 20.00     0.001 A 
HETATM    4  C4  UNL     1     -35.707  15.337  -3.185  1.00 20.00     0.007 A 
HETATM    5  C5  UNL     1     -33.374  14.728  -3.325  1.00 20.00     0.007 A 
HETATM    6  C6  UNL     1     -34.371  15.595  -2.879  1.00 20.00    -0.052 A 
ENDROOT
BRANCH   6   7
HETATM    7  C9  UNL     1     -34.008  16.800  -2.079  1.00 20.00     0.038 C 
HETATM    8  C7  UNL     1     -34.596  16.748  -0.654  1.00 20.00     0.017 C 
BRANCH   7   9
HETATM    9  C8  UNL     1     -34.421  18.125  -2.761  1.00 20.00     0.173 C 
BRANCH   9  10
HETATM   10  O10 UNL     1     -33.540  18.385  -3.848  1.00 20.00    -0.400 OA
HETATM   11  H22 UNL     1     -33.361  17.530  -4.271  1.00 20.00     0.209 HD
ENDBRANCH   9  10
ENDBRANCH   7   9
ENDBRANCH   6   7
TORSDOF 3
ENDMDL
MODEL 5
REMARK VINA RESULT:      -4.4     11.331     12.505
REMARK  3 active torsions:
REMARK  status: ('A' for Active; 'I' for Inactive)
REMARK    1  A    between atoms: C6_6  and  C9_9 
REMARK    2  A    between atoms: C8_8  and  C9_9 
REMARK    3  A    between atoms: C8_8  and  O10_10 
ROOT
HETATM    1  C1  UNL     1     -34.045  17.864  -1.629  1.00 20.00     0.000 A 
HETATM    2  C2  UNL     1     -33.663  18.135  -2.942  1.00 20.00     0.001 A 
HETATM    3  C3  UNL     1     -34.521  16.598  -1.287  1.00 20.00     0.001 A 
HETATM    4  C4  UNL     1     -33.754  17.139  -3.914  1.00 20.00     0.007 A 
HETATM    5  C5  UNL     1     -34.614  15.603  -2.260  1.00 20.00     0.007 A 
HETATM    6  C6  UNL     1     -34.229  15.873  -3.573  1.00 20.00    -0.052 A 
ENDROOT
BRANCH   6   7
HETATM    7  C9  UNL     1     -34.329  14.808  -4.612  1.00 20.00     0.038 C 
HETATM    8  C7  UNL     1     -34.312  15.388  -6.041  1.00 20.00     0.017 C 
BRANCH   7   9
HETATM    9  C8  UNL     1     -35.574  13.907  -4.435  1.00 20.00     0.173 C 
BRANCH   9  10
HETATM   10  O10 UNL     1     -35.153  12.582  -4.134  1.00 20.00    -0.400 OA
HETATM   11  H22 UNL     1     -35.920  12.125  -3.756  1.00 20.00     0.209 HD
ENDBRANCH   9  10
ENDBRANCH   7   9
ENDBRANCH   6   7
TORSDOF 3
ENDMDL
MODEL 6
REMARK VINA RESULT:      -4.4     11.130     11.969
REMARK  3 active torsions:
REMARK  status: ('A' for Active; 'I' for Inactive)
REMARK    1  A    between atoms: C6_6  and  C9_9 
REMARK    2  A    between atoms: C8_8  and  C9_9 
REMARK    3  A    between atoms: C8_8  and  O10_10 
ROOT
HETATM    1  C1  UNL     1     -36.188  17.946  -1.518  1.00 20.00     0.000 A 
HETATM    2  C2  UNL     1     -36.682  17.394  -2.699  1.00 20.00     0.001 A 
HETATM    3  C3  UNL     1     -35.068  17.388  -0.902  1.00 20.00     0.001 A 
HETATM    4  C4  UNL     1     -36.055  16.284  -3.265  1.00 20.00     0.007 A 
HETATM    5  C5  UNL     1     -34.442  16.278  -1.468  1.00 20.00     0.007 A 
HETATM    6  C6  UNL     1     -34.935  15.726  -2.650  1.00 20.00    -0.052 A 
ENDROOT
BRANCH   6   7
HETATM    7  C9  UNL     1     -34.265  14.538  -3.254  1.00 20.00     0.038 C 
HETATM    8  C7  UNL     1     -32.829  14.855  -3.717  1.00 20.00     0.017 C 
BRANCH   7   9
HETATM    9  C8  UNL     1     -35.064  13.928  -4.429  1.00 20.00     0.173 C 
BRANCH   9  10
HETATM   10  O10 UNL     1     -35.366  12.569  -4.132  1.00 20.00    -0.400 OA
HETATM   11  H22 UNL     1     -34.591  12.205  -3.677  1.00 20.00     0.209 HD
ENDBRANCH   9  10
ENDBRANCH   7   9
ENDBRANCH   6   7
TORSDOF 3
ENDMDL
MODEL 7
REMARK VINA RESULT:      -4.4     11.340     12.554
REMARK  3 active torsions:
REMARK  status: ('A' for Active; 'I' for Inactive)
REMARK    1  A    between atoms: C6_6  and  C9_9 
REMARK    2  A    between atoms: C8_8  and  C9_9 
REMARK    3  A    between atoms: C8_8  and  O10_10 
ROOT
HETATM    1  C1  UNL     1     -34.009  17.947  -1.669  1.00 20.00     0.000 A 
HETATM    2  C2  UNL     1     -34.435  16.675  -1.287  1.00 20.00     0.001 A 
HETATM    3  C3  UNL     1     -33.687  18.203  -3.002  1.00 20.00     0.001 A 
HETATM    4  C4  UNL     1     -34.540  15.660  -2.237  1.00 20.00     0.007 A 
HETATM    5  C5  UNL     1     -33.791  17.187  -3.952  1.00 20.00     0.007 A 
HETATM    6  C6  UNL     1     -34.218  15.916  -3.570  1.00 20.00    -0.052 A 
ENDROOT
BRANCH   6   7
HETATM    7  C9  UNL     1     -34.328  14.830  -4.586  1.00 20.00     0.038 C 
HETATM    8  C7  UNL     1     -34.334  15.382  -6.026  1.00 20.00     0.017 C 
BRANCH   7   9
HETATM    9  C8  UNL     1     -35.566  13.927  -4.373  1.00 20.00     0.173 C 
BRANCH   9  10
HETATM   10  O10 UNL     1     -35.134  12.596  -4.116  1.00 20.00    -0.400 OA
HETATM   11  H22 UNL     1     -34.287  12.664  -3.647  1.00 20.00     0.209 HD
ENDBRANCH   9  10
ENDBRANCH   7   9
ENDBRANCH   6   7
TORSDOF 3
ENDMDL
MODEL 8
REMARK VINA RESULT:      -4.3     11.325     12.494
REMARK  3 active torsions:
REMARK  status: ('A' for Active; 'I' for Inactive)
REMARK    1  A    between atoms: C6_6  and  C9_9 
REMARK    2  A    between atoms: C8_8  and  C9_9 
REMARK    3  A    between atoms: C8_8  and  O10_10 
ROOT
HETATM    1  C1  UNL     1     -34.046  18.352  -0.075  1.00 20.00     0.000 A 
HETATM    2  C2  UNL     1     -34.701  17.121  -0.052  1.00 20.00     0.001 A 
HETATM    3  C3  UNL     1     -33.509  18.835  -1.269  1.00 20.00     0.001 A 
HETATM    4  C4  UNL     1     -34.821  16.373  -1.224  1.00 20.00     0.007 A 
HETATM    5  C5  UNL     1     -33.628  18.086  -2.440  1.00 20.00     0.007 A 
HETATM    6  C6  UNL     1     -34.284  16.855  -2.417  1.00 20.00    -0.052 A 
ENDROOT
BRANCH   6   7
HETATM    7  C9  UNL     1     -34.410  16.055  -3.669  1.00 20.00     0.038 C 
HETATM    8  C7  UNL     1     -34.407  14.538  -3.391  1.00 20.00     0.017 C 
BRANCH   7   9
HETATM    9  C8  UNL     1     -33.319  16.392  -4.712  1.00 20.00     0.173 C 
BRANCH   9  10
HETATM   10  O10 UNL     1     -32.200  15.535  -4.511  1.00 20.00    -0.400 OA
HETATM   11  H22 UNL     1     -31.690  15.912  -3.777  1.00 20.00     0.209 HD
ENDBRANCH   9  10
ENDBRANCH   7   9
ENDBRANCH   6   7
TORSDOF 3
ENDMDL
MODEL 9
REMARK VINA RESULT:      -4.3     11.306     11.998
REMARK  3 active torsions:
REMARK  status: ('A' for Active; 'I' for Inactive)
REMARK    1  A    between atoms: C6_6  and  C9_9 
REMARK    2  A    between atoms: C8_8  and  C9_9 
REMARK    3  A    between atoms: C8_8  and  O10_10 
ROOT
HETATM    1  C1  UNL     1     -34.653  13.328  -4.373  1.00 20.00     0.000 A 
HETATM    2  C2  UNL     1     -33.484  13.912  -3.885  1.00 20.00     0.001 A 
HETATM    3  C3  UNL     1     -35.888  13.928  -4.128  1.00 20.00     0.001 A 
HETATM    4  C4  UNL     1     -33.550  15.098  -3.155  1.00 20.00     0.007 A 
HETATM    5  C5  UNL     1     -35.954  15.114  -3.396  1.00 20.00     0.007 A 
HETATM    6  C6  UNL     1     -34.784  15.699  -2.910  1.00 20.00    -0.052 A 
ENDROOT
BRANCH   6   7
HETATM    7  C9  UNL     1     -34.856  16.966  -2.127  1.00 20.00     0.038 C 
HETATM    8  C7  UNL     1     -34.612  16.733  -0.622  1.00 20.00     0.017 C 
BRANCH   7   9
HETATM    9  C8  UNL     1     -36.190  17.723  -2.323  1.00 20.00     0.173 C 
BRANCH   9  10
HETATM   10  O10 UNL     1     -36.914  17.718  -1.098  1.00 20.00    -0.400 OA
HETATM   11  H22 UNL     1     -37.810  18.029  -1.302  1.00 20.00     0.209 HD
ENDBRANCH   9  10
ENDBRANCH   7   9
ENDBRANCH   6   7
TORSDOF 3
ENDMDL
