MODEL 1
REMARK VINA RESULT:      -5.5      0.000      0.000
REMARK  1 active torsions:
REMARK  status: ('A' for Active; 'I' for Inactive)
REMARK    1  A    between atoms: C6_6  and  C9_9 
ROOT
HETATM    1  C1  UNL     1     -34.677   5.089   2.951  1.00 20.00     0.001 A 
HETATM    2  C2  UNL     1     -35.063   4.936   4.283  1.00 20.00     0.007 A 
HETATM    3  C3  UNL     1     -33.603   5.918   2.627  1.00 20.00     0.007 A 
HETATM    4  C4  UNL     1     -33.300   6.440   4.967  1.00 20.00     0.013 A 
HETATM    5  C5  UNL     1     -34.374   5.610   5.291  1.00 20.00    -0.061 A 
HETATM    6  C6  UNL     1     -32.914   6.592   3.635  1.00 20.00    -0.058 A 
HETATM    7  C7  UNL     1     -34.786   5.445   6.715  1.00 20.00     0.048 C 
ENDROOT
BRANCH   6   8
HETATM    8  C9  UNL     1     -31.765   7.479   3.289  1.00 20.00     0.034 C 
HETATM    9  C8  UNL     1     -31.998   8.250   1.992  1.00 20.00     0.010 C 
ENDBRANCH   6   8
TORSDOF 1
ENDMDL
MODEL 2
REMARK VINA RESULT:      -5.3      1.234      2.145
REMARK  1 active torsions:
REMARK  status: ('A' for Active; 'I' for Inactive)
REMARK    1  A    between atoms: C6_6  and  C9_9 
ROOT
HETATM    1  C1  UNL     1     -35.168   4.416   5.782  1.00 20.00     0.001 A 
HETATM    2  C2  UNL     1     -34.779   5.385   6.707  1.00 20.00     0.007 A 
HETATM    3  C3  UNL     1     -34.783   4.533   4.446  1.00 20.00     0.007 A 
HETATM    4  C4  UNL     1     -33.620   6.587   4.961  1.00 20.00     0.013 A 
HETATM    5  C5  UNL     1     -34.005   6.470   6.297  1.00 20.00    -0.061 A 
HETATM    6  C6  UNL     1     -34.008   5.618   4.036  1.00 20.00    -0.058 A 
HETATM    7  C7  UNL     1     -33.588   7.504   7.288  1.00 20.00     0.048 C 
ENDROOT
BRANCH   6   8
HETATM    8  C9  UNL     1     -33.598   5.744   2.607  1.00 20.00     0.034 C 
HETATM    9  C8  UNL     1     -32.416   6.693   2.425  1.00 20.00     0.010 C 
ENDBRANCH   6   8
TORSDOF 1
ENDMDL
MODEL 3
REMARK VINA RESULT:      -4.8      1.042      2.096
REMARK  1 active torsions:
REMARK  status: ('A' for Active; 'I' for Inactive)
REMARK    1  A    between atoms: C6_6  and  C9_9 
ROOT
HETATM    1  C1  UNL     1     -33.532   7.038   6.292  1.00 20.00     0.001 A 
HETATM    2  C2  UNL     1     -34.355   5.918   6.412  1.00 20.00     0.007 A 
HETATM    3  C3  UNL     1     -32.879   7.298   5.087  1.00 20.00     0.007 A 
HETATM    4  C4  UNL     1     -33.874   5.318   4.122  1.00 20.00     0.013 A 
HETATM    5  C5  UNL     1     -34.527   5.059   5.327  1.00 20.00    -0.061 A 
HETATM    6  C6  UNL     1     -33.051   6.439   4.002  1.00 20.00    -0.058 A 
HETATM    7  C7  UNL     1     -35.408   3.863   5.456  1.00 20.00     0.048 C 
ENDROOT
BRANCH   6   8
HETATM    8  C9  UNL     1     -32.352   6.716   2.713  1.00 20.00     0.034 C 
HETATM    9  C8  UNL     1     -32.194   8.211   2.449  1.00 20.00     0.010 C 
ENDBRANCH   6   8
TORSDOF 1
ENDMDL
MODEL 4
REMARK VINA RESULT:      -4.8      0.628      3.698
REMARK  1 active torsions:
REMARK  status: ('A' for Active; 'I' for Inactive)
REMARK    1  A    between atoms: C6_6  and  C9_9 
ROOT
HETATM    1  C1  UNL     1     -34.334   5.294   2.660  1.00 20.00     0.001 A 
HETATM    2  C2  UNL     1     -33.230   6.112   2.418  1.00 20.00     0.007 A 
HETATM    3  C3  UNL     1     -34.812   5.136   3.961  1.00 20.00     0.007 A 
HETATM    4  C4  UNL     1     -33.083   6.614   4.776  1.00 20.00     0.013 A 
HETATM    5  C5  UNL     1     -32.605   6.773   3.475  1.00 20.00    -0.061 A 
HETATM    6  C6  UNL     1     -34.187   5.796   5.019  1.00 20.00    -0.058 A 
HETATM    7  C7  UNL     1     -31.427   7.648   3.215  1.00 20.00     0.048 C 
ENDROOT
BRANCH   6   8
HETATM    8  C9  UNL     1     -34.698   5.626   6.410  1.00 20.00     0.034 C 
HETATM    9  C8  UNL     1     -35.268   4.231   6.652  1.00 20.00     0.010 C 
ENDBRANCH   6   8
TORSDOF 1
ENDMDL
MODEL 5
REMARK VINA RESULT:      -4.6     11.244     11.785
REMARK  1 active torsions:
REMARK  status: ('A' for Active; 'I' for Inactive)
REMARK    1  A    between atoms: C6_6  and  C9_9 
ROOT
HETATM    1  C1  UNL     1     -34.216  13.679  -4.163  1.00 20.00     0.001 A 
HETATM    2  C2  UNL     1     -35.591  13.696  -4.400  1.00 20.00     0.007 A 
HETATM    3  C3  UNL     1     -33.639  14.643  -3.336  1.00 20.00     0.007 A 
HETATM    4  C4  UNL     1     -35.811  15.639  -2.981  1.00 20.00     0.013 A 
HETATM    5  C5  UNL     1     -36.389  14.676  -3.808  1.00 20.00    -0.061 A 
HETATM    6  C6  UNL     1     -34.436  15.622  -2.744  1.00 20.00    -0.058 A 
HETATM    7  C7  UNL     1     -37.859  14.692  -4.059  1.00 20.00     0.048 C 
ENDROOT
BRANCH   6   8
HETATM    8  C9  UNL     1     -33.818  16.652  -1.860  1.00 20.00     0.034 C 
HETATM    9  C8  UNL     1     -34.616  16.870  -0.577  1.00 20.00     0.010 C 
ENDBRANCH   6   8
TORSDOF 1
ENDMDL
MODEL 6
REMARK VINA RESULT:      -4.5      1.712      3.452
REMARK  1 active torsions:
REMARK  status: ('A' for Active; 'I' for Inactive)
REMARK    1  A    between atoms: C6_6  and  C9_9 
ROOT
HETATM    1  C1  UNL     1     -35.195   4.283   5.879  1.00 20.00     0.001 A 
HETATM    2  C2  UNL     1     -35.139   4.295   4.485  1.00 20.00     0.007 A 
HETATM    3  C3  UNL     1     -34.570   5.293   6.611  1.00 20.00     0.007 A 
HETATM    4  C4  UNL     1     -33.836   6.328   4.554  1.00 20.00     0.013 A 
HETATM    5  C5  UNL     1     -34.461   5.318   3.823  1.00 20.00    -0.061 A 
HETATM    6  C6  UNL     1     -33.892   6.316   5.948  1.00 20.00    -0.058 A 
HETATM    7  C7  UNL     1     -34.404   5.331   2.333  1.00 20.00     0.048 C 
ENDROOT
BRANCH   6   8
HETATM    8  C9  UNL     1     -33.224   7.396   6.731  1.00 20.00     0.034 C 
HETATM    9  C8  UNL     1     -34.168   8.058   7.730  1.00 20.00     0.010 C 
ENDBRANCH   6   8
TORSDOF 1
ENDMDL
MODEL 7
REMARK VINA RESULT:      -4.4     11.024     12.637
REMARK  1 active torsions:
REMARK  status: ('A' for Active; 'I' for Inactive)
REMARK    1  A    between atoms: C6_6  and  C9_9 
ROOT
HETATM    1  C1  UNL     1     -34.890  13.329  -4.299  1.00 20.00     0.001 A 
HETATM    2  C2  UNL     1     -34.867  13.764  -5.624  1.00 20.00     0.007 A 
HETATM    3  C3  UNL     1     -34.502  14.193  -3.275  1.00 20.00     0.007 A 
HETATM    4  C4  UNL     1     -34.072  15.928  -4.901  1.00 20.00     0.013 A 
HETATM    5  C5  UNL     1     -34.460  15.063  -5.926  1.00 20.00    -0.061 A 
HETATM    6  C6  UNL     1     -34.094  15.493  -3.576  1.00 20.00    -0.058 A 
HETATM    7  C7  UNL     1     -34.438  15.528  -7.342  1.00 20.00     0.048 C 
ENDROOT
BRANCH   6   8
HETATM    8  C9  UNL     1     -33.679  16.416  -2.481  1.00 20.00     0.034 C 
HETATM    9  C8  UNL     1     -34.656  16.402  -1.308  1.00 20.00     0.010 C 
ENDBRANCH   6   8
TORSDOF 1
ENDMDL
MODEL 8
REMARK VINA RESULT:      -4.4      8.984     10.528
REMARK  1 active torsions:
REMARK  status: ('A' for Active; 'I' for Inactive)
REMARK    1  A    between atoms: C6_6  and  C9_9 
ROOT
HETATM    1  C1  UNL     1     -40.630   5.903  -0.412  1.00 20.00     0.001 A 
HETATM    2  C2  UNL     1     -40.817   4.636  -0.966  1.00 20.00     0.007 A 
HETATM    3  C3  UNL     1     -41.272   7.010  -0.969  1.00 20.00     0.007 A 
HETATM    4  C4  UNL     1     -42.289   5.582  -2.632  1.00 20.00     0.013 A 
HETATM    5  C5  UNL     1     -41.647   4.475  -2.075  1.00 20.00    -0.061 A 
HETATM    6  C6  UNL     1     -42.102   6.849  -2.078  1.00 20.00    -0.058 A 
HETATM    7  C7  UNL     1     -41.848   3.121  -2.665  1.00 20.00     0.048 C 
ENDROOT
BRANCH   6   8
HETATM    8  C9  UNL     1     -42.788   8.032  -2.674  1.00 20.00     0.034 C 
HETATM    9  C8  UNL     1     -42.618   8.099  -4.190  1.00 20.00     0.010 C 
ENDBRANCH   6   8
TORSDOF 1
ENDMDL
MODEL 9
REMARK VINA RESULT:      -4.4     11.355     12.518
REMARK  1 active torsions:
REMARK  status: ('A' for Active; 'I' for Inactive)
REMARK    1  A    between atoms: C6_6  and  C9_9 
ROOT
HETATM    1  C1  UNL     1     -33.507  16.896  -4.646  1.00 20.00     0.001 A 
HETATM    2  C2  UNL     1     -33.773  15.617  -5.138  1.00 20.00     0.007 A 
HETATM    3  C3  UNL     1     -33.774  17.199  -3.311  1.00 20.00     0.007 A 
HETATM    4  C4  UNL     1     -34.570  14.945  -2.958  1.00 20.00     0.013 A 
HETATM    5  C5  UNL     1     -34.303  14.642  -4.294  1.00 20.00    -0.061 A 
HETATM    6  C6  UNL     1     -34.304  16.223  -2.467  1.00 20.00    -0.058 A 
HETATM    7  C7  UNL     1     -34.584  13.275  -4.820  1.00 20.00     0.048 C 
ENDROOT
BRANCH   6   8
HETATM    8  C9  UNL     1     -34.590  16.547  -1.039  1.00 20.00     0.034 C 
HETATM    9  C8  UNL     1     -33.760  17.724  -0.534  1.00 20.00     0.010 C 
ENDBRANCH   6   8
TORSDOF 1
ENDMDL
