MODEL 1
REMARK VINA RESULT:      -4.1      0.000      0.000
REMARK  0 active torsions:
REMARK  status: ('A' for Active; 'I' for Inactive)
ROOT
HETATM    1  C1  UNL     1     -33.771   6.808   6.594  1.00 20.00     0.002 A 
HETATM    2  C2  UNL     1     -34.520   5.644   6.421  1.00 20.00     0.007 A 
HETATM    3  C3  UNL     1     -33.071   7.353   5.518  1.00 20.00     0.018 A 
HETATM    4  C4  UNL     1     -33.869   5.570   4.096  1.00 20.00     0.025 A 
HETATM    5  C5  UNL     1     -34.569   5.025   5.172  1.00 20.00    -0.061 A 
HETATM    6  C6  UNL     1     -33.120   6.735   4.268  1.00 20.00     0.006 A 
HETATM    7  C7  UNL     1     -35.368   3.780   4.989  1.00 20.00     0.048 C 
HETATM    8  I8  UNL     1     -32.079   7.548   2.665  1.00 20.00    -0.045 I 
ENDROOT
TORSDOF 0
ENDMDL
MODEL 2
REMARK VINA RESULT:      -4.0     10.204     11.091
REMARK  0 active torsions:
REMARK  status: ('A' for Active; 'I' for Inactive)
ROOT
HETATM    1  C1  UNL     1     -40.709   5.774  -0.646  1.00 20.00     0.002 A 
HETATM    2  C2  UNL     1     -41.245   6.932  -1.209  1.00 20.00     0.007 A 
HETATM    3  C3  UNL     1     -41.046   4.525  -1.167  1.00 20.00     0.018 A 
HETATM    4  C4  UNL     1     -42.455   5.592  -2.814  1.00 20.00     0.025 A 
HETATM    5  C5  UNL     1     -42.118   6.842  -2.293  1.00 20.00    -0.061 A 
HETATM    6  C6  UNL     1     -41.919   4.434  -2.251  1.00 20.00     0.006 A 
HETATM    7  C7  UNL     1     -42.692   8.080  -2.893  1.00 20.00     0.048 C 
HETATM    8  I8  UNL     1     -42.418   2.573  -3.029  1.00 20.00    -0.045 I 
ENDROOT
TORSDOF 0
ENDMDL
MODEL 3
REMARK VINA RESULT:      -3.9     12.257     12.824
REMARK  0 active torsions:
REMARK  status: ('A' for Active; 'I' for Inactive)
ROOT
HETATM    1  C1  UNL     1     -34.461  13.696  -4.074  1.00 20.00     0.002 A 
HETATM    2  C2  UNL     1     -33.817  14.624  -3.256  1.00 20.00     0.007 A 
HETATM    3  C3  UNL     1     -35.830  13.810  -4.317  1.00 20.00     0.018 A 
HETATM    4  C4  UNL     1     -35.911  15.783  -2.924  1.00 20.00     0.025 A 
HETATM    5  C5  UNL     1     -34.542  15.668  -2.681  1.00 20.00    -0.061 A 
HETATM    6  C6  UNL     1     -36.555  14.854  -3.742  1.00 20.00     0.006 A 
HETATM    7  C7  UNL     1     -33.853  16.660  -1.807  1.00 20.00     0.048 C 
HETATM    8  I8  UNL     1     -38.593  15.027  -4.105  1.00 20.00    -0.045 I 
ENDROOT
TORSDOF 0
ENDMDL
MODEL 4
REMARK VINA RESULT:      -3.9      0.973      2.335
REMARK  0 active torsions:
REMARK  status: ('A' for Active; 'I' for Inactive)
ROOT
HETATM    1  C1  UNL     1     -35.034   4.852   3.282  1.00 20.00     0.002 A 
HETATM    2  C2  UNL     1     -35.189   4.861   4.668  1.00 20.00     0.007 A 
HETATM    3  C3  UNL     1     -34.092   5.686   2.680  1.00 20.00     0.018 A 
HETATM    4  C4  UNL     1     -33.459   6.538   4.851  1.00 20.00     0.025 A 
HETATM    5  C5  UNL     1     -34.401   5.704   5.453  1.00 20.00    -0.061 A 
HETATM    6  C6  UNL     1     -33.304   6.529   3.464  1.00 20.00     0.006 A 
HETATM    7  C7  UNL     1     -34.569   5.714   6.934  1.00 20.00     0.048 C 
HETATM    8  I8  UNL     1     -31.899   7.769   2.568  1.00 20.00    -0.045 I 
ENDROOT
TORSDOF 0
ENDMDL
MODEL 5
REMARK VINA RESULT:      -3.9      9.895     10.666
REMARK  0 active torsions:
REMARK  status: ('A' for Active; 'I' for Inactive)
ROOT
HETATM    1  C1  UNL     1     -40.795   6.303  -0.457  1.00 20.00     0.002 A 
HETATM    2  C2  UNL     1     -40.796   4.967  -0.857  1.00 20.00     0.007 A 
HETATM    3  C3  UNL     1     -41.546   7.243  -1.163  1.00 20.00     0.018 A 
HETATM    4  C4  UNL     1     -42.298   5.510  -2.670  1.00 20.00     0.025 A 
HETATM    5  C5  UNL     1     -41.547   4.570  -1.964  1.00 20.00    -0.061 A 
HETATM    6  C6  UNL     1     -42.297   6.847  -2.270  1.00 20.00     0.006 A 
HETATM    7  C7  UNL     1     -41.546   3.142  -2.391  1.00 20.00     0.048 C 
HETATM    8  I8  UNL     1     -43.417   8.246  -3.320  1.00 20.00    -0.045 I 
ENDROOT
TORSDOF 0
ENDMDL
MODEL 6
REMARK VINA RESULT:      -3.9     12.139     13.262
REMARK  0 active torsions:
REMARK  status: ('A' for Active; 'I' for Inactive)
ROOT
HETATM    1  C1  UNL     1     -33.654  17.757  -3.761  1.00 20.00     0.002 A 
HETATM    2  C2  UNL     1     -33.927  17.924  -2.403  1.00 20.00     0.007 A 
HETATM    3  C3  UNL     1     -33.887  16.525  -4.373  1.00 20.00     0.018 A 
HETATM    4  C4  UNL     1     -34.668  15.628  -2.269  1.00 20.00     0.025 A 
HETATM    5  C5  UNL     1     -34.434  16.860  -1.657  1.00 20.00    -0.061 A 
HETATM    6  C6  UNL     1     -34.394  15.461  -3.627  1.00 20.00     0.006 A 
HETATM    7  C7  UNL     1     -34.724  17.040  -0.206  1.00 20.00     0.048 C 
HETATM    8  I8  UNL     1     -34.745  13.628  -4.539  1.00 20.00    -0.045 I 
ENDROOT
TORSDOF 0
ENDMDL
MODEL 7
REMARK VINA RESULT:      -3.9     12.229     13.314
REMARK  0 active torsions:
REMARK  status: ('A' for Active; 'I' for Inactive)
ROOT
HETATM    1  C1  UNL     1     -33.522  16.828  -4.989  1.00 20.00     0.002 A 
HETATM    2  C2  UNL     1     -33.832  15.505  -5.303  1.00 20.00     0.007 A 
HETATM    3  C3  UNL     1     -33.731  17.304  -3.694  1.00 20.00     0.018 A 
HETATM    4  C4  UNL     1     -34.559  15.134  -3.029  1.00 20.00     0.025 A 
HETATM    5  C5  UNL     1     -34.350  14.657  -4.323  1.00 20.00    -0.061 A 
HETATM    6  C6  UNL     1     -34.249  16.458  -2.714  1.00 20.00     0.006 A 
HETATM    7  C7  UNL     1     -34.682  13.244  -4.660  1.00 20.00     0.048 C 
HETATM    8  I8  UNL     1     -34.557  17.167  -0.786  1.00 20.00    -0.045 I 
ENDROOT
TORSDOF 0
ENDMDL
MODEL 8
REMARK VINA RESULT:      -3.8     12.403     13.692
REMARK  0 active torsions:
REMARK  status: ('A' for Active; 'I' for Inactive)
ROOT
HETATM    1  C1  UNL     1     -34.721  13.439  -4.642  1.00 20.00     0.002 A 
HETATM    2  C2  UNL     1     -34.662  14.098  -5.870  1.00 20.00     0.007 A 
HETATM    3  C3  UNL     1     -34.681  14.171  -3.455  1.00 20.00     0.018 A 
HETATM    4  C4  UNL     1     -34.522  16.221  -4.724  1.00 20.00     0.025 A 
HETATM    5  C5  UNL     1     -34.562  15.489  -5.911  1.00 20.00    -0.061 A 
HETATM    6  C6  UNL     1     -34.581  15.561  -3.496  1.00 20.00     0.006 A 
HETATM    7  C7  UNL     1     -34.498  16.192  -7.225  1.00 20.00     0.048 C 
HETATM    8  I8  UNL     1     -34.523  16.652  -1.729  1.00 20.00    -0.045 I 
ENDROOT
TORSDOF 0
ENDMDL
MODEL 9
REMARK VINA RESULT:      -3.8     12.118     12.596
REMARK  0 active torsions:
REMARK  status: ('A' for Active; 'I' for Inactive)
ROOT
HETATM    1  C1  UNL     1     -34.340  13.842  -3.929  1.00 20.00     0.002 A 
HETATM    2  C2  UNL     1     -35.691  13.789  -4.271  1.00 20.00     0.007 A 
HETATM    3  C3  UNL     1     -33.871  14.858  -3.096  1.00 20.00     0.018 A 
HETATM    4  C4  UNL     1     -36.104  15.769  -2.949  1.00 20.00     0.025 A 
HETATM    5  C5  UNL     1     -36.573  14.753  -3.782  1.00 20.00    -0.061 A 
HETATM    6  C6  UNL     1     -34.752  15.821  -2.606  1.00 20.00     0.006 A 
HETATM    7  C7  UNL     1     -38.017  14.696  -4.150  1.00 20.00     0.048 C 
HETATM    8  I8  UNL     1     -34.054  17.333  -1.364  1.00 20.00    -0.045 I 
ENDROOT
TORSDOF 0
ENDMDL
