MODEL 1
REMARK VINA RESULT:      -5.4      0.000      0.000
REMARK  2 active torsions:
REMARK  status: ('A' for Active; 'I' for Inactive)
REMARK    1  A    between atoms: C6_6  and  C8_8 
REMARK    2  A    between atoms: C8_8  and  N10_10 
ROOT
HETATM    1  N9  UNL     1     -32.160   9.151   0.977  1.00 20.00     0.068 N 
HETATM    2  N10 UNL     1     -31.969   7.474   2.660  1.00 20.00    -0.111 NA
HETATM    3  N11 UNL     1     -32.073   8.346   1.781  1.00 20.00    -0.167 NA
ENDROOT
BRANCH   2   4
HETATM    4  C8  UNL     1     -32.911   6.352   2.557  1.00 20.00     0.227 C 
BRANCH   4   5
HETATM    5  C6  UNL     1     -33.569   6.045   3.859  1.00 20.00    -0.035 A 
HETATM    6  C3  UNL     1     -34.431   4.952   3.964  1.00 20.00     0.009 A 
HETATM    7  C1  UNL     1     -35.047   4.665   5.182  1.00 20.00     0.001 A 
HETATM    8  C2  UNL     1     -34.802   5.469   6.295  1.00 20.00     0.007 A 
HETATM    9  C5  UNL     1     -33.941   6.561   6.189  1.00 20.00    -0.061 A 
HETATM   10  C4  UNL     1     -33.325   6.849   4.971  1.00 20.00     0.015 A 
HETATM   11  C7  UNL     1     -33.678   7.421   7.380  1.00 20.00     0.048 C 
ENDBRANCH   4   5
ENDBRANCH   2   4
TORSDOF 2
ENDMDL
MODEL 2
REMARK VINA RESULT:      -5.1      0.664      2.046
REMARK  2 active torsions:
REMARK  status: ('A' for Active; 'I' for Inactive)
REMARK    1  A    between atoms: C6_6  and  C8_8 
REMARK    2  A    between atoms: C8_8  and  N10_10 
ROOT
HETATM    1  N9  UNL     1     -32.457   9.514   0.977  1.00 20.00     0.068 N 
HETATM    2  N10 UNL     1     -31.810   8.038   2.733  1.00 20.00    -0.111 NA
HETATM    3  N11 UNL     1     -32.151   8.804   1.816  1.00 20.00    -0.167 NA
ENDROOT
BRANCH   2   4
HETATM    4  C8  UNL     1     -32.474   6.728   2.747  1.00 20.00     0.227 C 
BRANCH   4   5
HETATM    5  C6  UNL     1     -33.129   6.440   4.055  1.00 20.00    -0.035 A 
HETATM    6  C3  UNL     1     -32.935   7.300   5.137  1.00 20.00     0.009 A 
HETATM    7  C1  UNL     1     -33.547   7.030   6.360  1.00 20.00     0.001 A 
HETATM    8  C2  UNL     1     -34.355   5.902   6.503  1.00 20.00     0.007 A 
HETATM    9  C5  UNL     1     -34.549   5.043   5.422  1.00 20.00    -0.061 A 
HETATM   10  C4  UNL     1     -33.936   5.312   4.198  1.00 20.00     0.015 A 
HETATM   11  C7  UNL     1     -35.413   3.836   5.574  1.00 20.00     0.048 C 
ENDBRANCH   4   5
ENDBRANCH   2   4
TORSDOF 2
ENDMDL
MODEL 3
REMARK VINA RESULT:      -4.6     11.723     12.357
REMARK  2 active torsions:
REMARK  status: ('A' for Active; 'I' for Inactive)
REMARK    1  A    between atoms: C6_6  and  C8_8 
REMARK    2  A    between atoms: C8_8  and  N10_10 
ROOT
HETATM    1  N9  UNL     1     -40.021  14.364  -4.730  1.00 20.00     0.068 N 
HETATM    2  N10 UNL     1     -37.881  14.369  -3.682  1.00 20.00    -0.111 NA
HETATM    3  N11 UNL     1     -38.995  14.367  -4.233  1.00 20.00    -0.167 NA
ENDROOT
BRANCH   2   4
HETATM    4  C8  UNL     1     -36.725  14.434  -4.585  1.00 20.00     0.227 C 
BRANCH   4   5
HETATM    5  C6  UNL     1     -35.535  15.057  -3.937  1.00 20.00    -0.035 A 
HETATM    6  C3  UNL     1     -34.315  15.101  -4.614  1.00 20.00     0.009 A 
HETATM    7  C1  UNL     1     -33.203  15.682  -4.006  1.00 20.00     0.001 A 
HETATM    8  C2  UNL     1     -33.308  16.220  -2.724  1.00 20.00     0.007 A 
HETATM    9  C5  UNL     1     -34.527  16.175  -2.048  1.00 20.00    -0.061 A 
HETATM   10  C4  UNL     1     -35.641  15.594  -2.655  1.00 20.00     0.015 A 
HETATM   11  C7  UNL     1     -34.640  16.751  -0.677  1.00 20.00     0.048 C 
ENDBRANCH   4   5
ENDBRANCH   2   4
TORSDOF 2
ENDMDL
MODEL 4
REMARK VINA RESULT:      -4.5     11.127     12.599
REMARK  2 active torsions:
REMARK  status: ('A' for Active; 'I' for Inactive)
REMARK    1  A    between atoms: C6_6  and  C8_8 
REMARK    2  A    between atoms: C8_8  and  N10_10 
ROOT
HETATM    1  N9  UNL     1     -34.289  17.756   0.414  1.00 20.00     0.068 N 
HETATM    2  N10 UNL     1     -34.668  16.227  -1.373  1.00 20.00    -0.111 NA
HETATM    3  N11 UNL     1     -34.466  17.026  -0.444  1.00 20.00    -0.167 NA
ENDROOT
BRANCH   2   4
HETATM    4  C8  UNL     1     -33.699  16.275  -2.475  1.00 20.00     0.227 C 
BRANCH   4   5
HETATM    5  C6  UNL     1     -34.108  15.421  -3.627  1.00 20.00    -0.035 A 
HETATM    6  C3  UNL     1     -34.481  14.093  -3.412  1.00 20.00     0.009 A 
HETATM    7  C1  UNL     1     -34.863  13.294  -4.489  1.00 20.00     0.001 A 
HETATM    8  C2  UNL     1     -34.874  13.820  -5.780  1.00 20.00     0.007 A 
HETATM    9  C5  UNL     1     -34.502  15.147  -5.994  1.00 20.00    -0.061 A 
HETATM   10  C4  UNL     1     -34.119  15.947  -4.918  1.00 20.00     0.015 A 
HETATM   11  C7  UNL     1     -34.515  15.711  -7.375  1.00 20.00     0.048 C 
ENDBRANCH   4   5
ENDBRANCH   2   4
TORSDOF 2
ENDMDL
MODEL 5
REMARK VINA RESULT:      -4.4     11.224     11.992
REMARK  2 active torsions:
REMARK  status: ('A' for Active; 'I' for Inactive)
REMARK    1  A    between atoms: C6_6  and  C8_8 
REMARK    2  A    between atoms: C8_8  and  N10_10 
ROOT
HETATM    1  N9  UNL     1     -34.838  12.847  -5.169  1.00 20.00     0.068 N 
HETATM    2  N10 UNL     1     -33.301  13.663  -3.541  1.00 20.00    -0.111 NA
HETATM    3  N11 UNL     1     -34.102  13.242  -4.392  1.00 20.00    -0.167 NA
ENDROOT
BRANCH   2   4
HETATM    4  C8  UNL     1     -32.899  15.068  -3.686  1.00 20.00     0.227 C 
BRANCH   4   5
HETATM    5  C6  UNL     1     -33.913  16.008  -3.126  1.00 20.00    -0.035 A 
HETATM    6  C3  UNL     1     -34.795  16.671  -3.980  1.00 20.00     0.009 A 
HETATM    7  C1  UNL     1     -35.742  17.550  -3.456  1.00 20.00     0.001 A 
HETATM    8  C2  UNL     1     -35.809  17.766  -2.080  1.00 20.00     0.007 A 
HETATM    9  C5  UNL     1     -34.928  17.102  -1.227  1.00 20.00    -0.061 A 
HETATM   10  C4  UNL     1     -33.979  16.223  -1.750  1.00 20.00     0.015 A 
HETATM   11  C7  UNL     1     -34.999  17.332   0.245  1.00 20.00     0.048 C 
ENDBRANCH   4   5
ENDBRANCH   2   4
TORSDOF 2
ENDMDL
MODEL 6
REMARK VINA RESULT:      -4.4     11.590     12.242
REMARK  2 active torsions:
REMARK  status: ('A' for Active; 'I' for Inactive)
REMARK    1  A    between atoms: C6_6  and  C8_8 
REMARK    2  A    between atoms: C8_8  and  N10_10 
ROOT
HETATM    1  N9  UNL     1     -40.114  16.037  -2.996  1.00 20.00     0.068 N 
HETATM    2  N10 UNL     1     -38.551  14.365  -3.659  1.00 20.00    -0.111 NA
HETATM    3  N11 UNL     1     -39.364  15.240  -3.316  1.00 20.00    -0.167 NA
ENDROOT
BRANCH   2   4
HETATM    4  C8  UNL     1     -37.560  14.775  -4.662  1.00 20.00     0.227 C 
BRANCH   4   5
HETATM    5  C6  UNL     1     -36.168  14.735  -4.130  1.00 20.00    -0.035 A 
HETATM    6  C3  UNL     1     -35.278  13.757  -4.576  1.00 20.00     0.009 A 
HETATM    7  C1  UNL     1     -33.976  13.719  -4.078  1.00 20.00     0.001 A 
HETATM    8  C2  UNL     1     -33.562  14.659  -3.135  1.00 20.00     0.007 A 
HETATM    9  C5  UNL     1     -34.451  15.637  -2.689  1.00 20.00    -0.061 A 
HETATM   10  C4  UNL     1     -35.754  15.675  -3.186  1.00 20.00     0.015 A 
HETATM   11  C7  UNL     1     -34.008  16.643  -1.680  1.00 20.00     0.048 C 
ENDBRANCH   4   5
ENDBRANCH   2   4
TORSDOF 2
ENDMDL
MODEL 7
REMARK VINA RESULT:      -4.3     11.406     11.972
REMARK  2 active torsions:
REMARK  status: ('A' for Active; 'I' for Inactive)
REMARK    1  A    between atoms: C6_6  and  C8_8 
REMARK    2  A    between atoms: C8_8  and  N10_10 
ROOT
HETATM    1  N9  UNL     1     -33.352  18.524   0.693  1.00 20.00     0.068 N 
HETATM    2  N10 UNL     1     -34.441  17.026  -0.807  1.00 20.00    -0.111 NA
HETATM    3  N11 UNL     1     -33.869  17.807  -0.028  1.00 20.00    -0.167 NA
ENDROOT
BRANCH   2   4
HETATM    4  C8  UNL     1     -33.701  16.694  -2.031  1.00 20.00     0.227 C 
BRANCH   4   5
HETATM    5  C6  UNL     1     -34.382  15.639  -2.835  1.00 20.00    -0.035 A 
HETATM    6  C3  UNL     1     -33.635  14.612  -3.413  1.00 20.00     0.009 A 
HETATM    7  C1  UNL     1     -34.272  13.625  -4.165  1.00 20.00     0.001 A 
HETATM    8  C2  UNL     1     -35.655  13.663  -4.339  1.00 20.00     0.007 A 
HETATM    9  C5  UNL     1     -36.402  14.690  -3.760  1.00 20.00    -0.061 A 
HETATM   10  C4  UNL     1     -35.765  15.677  -3.009  1.00 20.00     0.015 A 
HETATM   11  C7  UNL     1     -37.882  14.731  -3.946  1.00 20.00     0.048 C 
ENDBRANCH   4   5
ENDBRANCH   2   4
TORSDOF 2
ENDMDL
MODEL 8
REMARK VINA RESULT:      -4.3     11.170     11.917
REMARK  2 active torsions:
REMARK  status: ('A' for Active; 'I' for Inactive)
REMARK    1  A    between atoms: C6_6  and  C8_8 
REMARK    2  A    between atoms: C8_8  and  N10_10 
ROOT
HETATM    1  N9  UNL     1     -34.008  13.832  -3.571  1.00 20.00     0.068 N 
HETATM    2  N10 UNL     1     -34.759  15.714  -2.317  1.00 20.00    -0.111 NA
HETATM    3  N11 UNL     1     -34.363  14.736  -2.972  1.00 20.00    -0.167 NA
ENDROOT
BRANCH   2   4
HETATM    4  C8  UNL     1     -33.862  16.877  -2.307  1.00 20.00     0.227 C 
BRANCH   4   5
HETATM    5  C6  UNL     1     -33.780  17.516  -0.961  1.00 20.00    -0.035 A 
HETATM    6  C3  UNL     1     -32.711  18.358  -0.654  1.00 20.00     0.009 A 
HETATM    7  C1  UNL     1     -32.634  18.954   0.604  1.00 20.00     0.001 A 
HETATM    8  C2  UNL     1     -33.625  18.711   1.555  1.00 20.00     0.007 A 
HETATM    9  C5  UNL     1     -34.693  17.870   1.247  1.00 20.00    -0.061 A 
HETATM   10  C4  UNL     1     -34.771  17.272  -0.012  1.00 20.00     0.015 A 
HETATM   11  C7  UNL     1     -35.754  17.609   2.263  1.00 20.00     0.048 C 
ENDBRANCH   4   5
ENDBRANCH   2   4
TORSDOF 2
ENDMDL
MODEL 9
REMARK VINA RESULT:      -4.3     11.506     12.575
REMARK  2 active torsions:
REMARK  status: ('A' for Active; 'I' for Inactive)
REMARK    1  A    between atoms: C6_6  and  C8_8 
REMARK    2  A    between atoms: C8_8  and  N10_10 
ROOT
HETATM    1  N9  UNL     1     -38.887  14.905  -4.092  1.00 20.00     0.068 N 
HETATM    2  N10 UNL     1     -36.771  13.862  -3.754  1.00 20.00    -0.111 NA
HETATM    3  N11 UNL     1     -37.872  14.409  -3.933  1.00 20.00    -0.167 NA
ENDROOT
BRANCH   2   4
HETATM    4  C8  UNL     1     -35.651  14.420  -4.522  1.00 20.00     0.227 C 
BRANCH   4   5
HETATM    5  C6  UNL     1     -35.029  15.593  -3.844  1.00 20.00    -0.035 A 
HETATM    6  C3  UNL     1     -34.370  16.565  -4.598  1.00 20.00     0.009 A 
HETATM    7  C1  UNL     1     -33.787  17.662  -3.964  1.00 20.00     0.001 A 
HETATM    8  C2  UNL     1     -33.864  17.789  -2.577  1.00 20.00     0.007 A 
HETATM    9  C5  UNL     1     -34.523  16.818  -1.824  1.00 20.00    -0.061 A 
HETATM   10  C4  UNL     1     -35.106  15.720  -2.458  1.00 20.00     0.015 A 
HETATM   11  C7  UNL     1     -34.606  16.954  -0.341  1.00 20.00     0.048 C 
ENDBRANCH   4   5
ENDBRANCH   2   4
TORSDOF 2
ENDMDL
