MODEL 1
REMARK VINA RESULT:      -5.4      0.000      0.000
REMARK  4 active torsions:
REMARK  status: ('A' for Active; 'I' for Inactive)
REMARK    1  A    between atoms: C6_6  and  C7_7 
REMARK    2  A    between atoms: C7_7  and  C8_8 
REMARK    3  A    between atoms: C8_8  and  C9_9 
REMARK    4  A    between atoms: C9_9  and  S10_10 
ROOT
HETATM    1  C1  UNL     1     -35.071   5.010   6.361  1.00 20.00     0.000 A 
HETATM    2  C2  UNL     1     -34.217   6.111   6.397  1.00 20.00     0.001 A 
HETATM    3  C3  UNL     1     -35.260   4.312   5.169  1.00 20.00     0.001 A 
HETATM    4  C4  UNL     1     -33.551   6.516   5.240  1.00 20.00     0.007 A 
HETATM    5  C5  UNL     1     -34.594   4.717   4.012  1.00 20.00     0.007 A 
HETATM    6  C6  UNL     1     -33.740   5.819   4.048  1.00 20.00    -0.058 A 
ENDROOT
BRANCH   6   7
HETATM    7  C7  UNL     1     -33.029   6.251   2.809  1.00 20.00     0.039 C 
BRANCH   7   8
HETATM    8  C8  UNL     1     -32.187   7.532   2.973  1.00 20.00     0.014 C 
BRANCH   8   9
HETATM    9  C9  UNL     1     -31.834   8.173   1.631  1.00 20.00     0.071 C 
BRANCH   9  10
HETATM   10  S10 UNL     1     -32.519   9.853   1.525  1.00 20.00    -0.182 SA
HETATM   11  H22 UNL     1     -31.343  10.472   1.354  1.00 20.00     0.101 HD
ENDBRANCH   9  10
ENDBRANCH   8   9
ENDBRANCH   7   8
ENDBRANCH   6   7
TORSDOF 4
ENDMDL
MODEL 2
REMARK VINA RESULT:      -5.4      0.017      1.528
REMARK  4 active torsions:
REMARK  status: ('A' for Active; 'I' for Inactive)
REMARK    1  A    between atoms: C6_6  and  C7_7 
REMARK    2  A    between atoms: C7_7  and  C8_8 
REMARK    3  A    between atoms: C8_8  and  C9_9 
REMARK    4  A    between atoms: C9_9  and  S10_10 
ROOT
HETATM    1  C1  UNL     1     -35.068   5.009   6.361  1.00 20.00     0.000 A 
HETATM    2  C2  UNL     1     -35.254   4.303   5.174  1.00 20.00     0.001 A 
HETATM    3  C3  UNL     1     -34.220   6.116   6.388  1.00 20.00     0.001 A 
HETATM    4  C4  UNL     1     -34.592   4.702   4.012  1.00 20.00     0.007 A 
HETATM    5  C5  UNL     1     -33.558   6.516   5.227  1.00 20.00     0.007 A 
HETATM    6  C6  UNL     1     -33.744   5.809   4.040  1.00 20.00    -0.058 A 
ENDROOT
BRANCH   6   7
HETATM    7  C7  UNL     1     -33.036   6.237   2.798  1.00 20.00     0.039 C 
BRANCH   7   8
HETATM    8  C8  UNL     1     -32.185   7.512   2.959  1.00 20.00     0.014 C 
BRANCH   8   9
HETATM    9  C9  UNL     1     -31.838   8.154   1.615  1.00 20.00     0.071 C 
BRANCH   9  10
HETATM   10  S10 UNL     1     -32.522   9.835   1.513  1.00 20.00    -0.182 SA
HETATM   11  H22 UNL     1     -31.829  10.330   2.547  1.00 20.00     0.101 HD
ENDBRANCH   9  10
ENDBRANCH   8   9
ENDBRANCH   7   8
ENDBRANCH   6   7
TORSDOF 4
ENDMDL
MODEL 3
REMARK VINA RESULT:      -4.3     11.271     11.820
REMARK  4 active torsions:
REMARK  status: ('A' for Active; 'I' for Inactive)
REMARK    1  A    between atoms: C6_6  and  C7_7 
REMARK    2  A    between atoms: C7_7  and  C8_8 
REMARK    3  A    between atoms: C8_8  and  C9_9 
REMARK    4  A    between atoms: C9_9  and  S10_10 
ROOT
HETATM    1  C1  UNL     1     -35.016  13.361  -4.474  1.00 20.00     0.000 A 
HETATM    2  C2  UNL     1     -33.677  13.609  -4.173  1.00 20.00     0.001 A 
HETATM    3  C3  UNL     1     -36.011  14.198  -3.970  1.00 20.00     0.001 A 
HETATM    4  C4  UNL     1     -33.332  14.695  -3.369  1.00 20.00     0.007 A 
HETATM    5  C5  UNL     1     -35.666  15.284  -3.165  1.00 20.00     0.007 A 
HETATM    6  C6  UNL     1     -34.327  15.532  -2.865  1.00 20.00    -0.058 A 
ENDROOT
BRANCH   6   7
HETATM    7  C7  UNL     1     -33.959  16.693  -2.004  1.00 20.00     0.039 C 
BRANCH   7   8
HETATM    8  C8  UNL     1     -34.656  16.713  -0.629  1.00 20.00     0.014 C 
BRANCH   8   9
HETATM    9  C9  UNL     1     -34.222  17.902   0.228  1.00 20.00     0.071 C 
BRANCH   9  10
HETATM   10  S10 UNL     1     -35.200  17.980   1.757  1.00 20.00    -0.182 SA
HETATM   11  H22 UNL     1     -36.325  18.423   1.181  1.00 20.00     0.101 HD
ENDBRANCH   9  10
ENDBRANCH   8   9
ENDBRANCH   7   8
ENDBRANCH   6   7
TORSDOF 4
ENDMDL
MODEL 4
REMARK VINA RESULT:      -4.3     11.298     11.901
REMARK  4 active torsions:
REMARK  status: ('A' for Active; 'I' for Inactive)
REMARK    1  A    between atoms: C6_6  and  C7_7 
REMARK    2  A    between atoms: C7_7  and  C8_8 
REMARK    3  A    between atoms: C8_8  and  C9_9 
REMARK    4  A    between atoms: C9_9  and  S10_10 
ROOT
HETATM    1  C1  UNL     1     -35.088  13.441  -4.412  1.00 20.00     0.000 A 
HETATM    2  C2  UNL     1     -36.064  14.309  -3.925  1.00 20.00     0.001 A 
HETATM    3  C3  UNL     1     -33.747  13.649  -4.090  1.00 20.00     0.001 A 
HETATM    4  C4  UNL     1     -35.701  15.385  -3.116  1.00 20.00     0.007 A 
HETATM    5  C5  UNL     1     -33.383  14.725  -3.281  1.00 20.00     0.007 A 
HETATM    6  C6  UNL     1     -34.360  15.593  -2.794  1.00 20.00    -0.058 A 
ENDROOT
BRANCH   6   7
HETATM    7  C7  UNL     1     -33.970  16.744  -1.928  1.00 20.00     0.039 C 
BRANCH   7   8
HETATM    8  C8  UNL     1     -34.657  16.764  -0.548  1.00 20.00     0.014 C 
BRANCH   8   9
HETATM    9  C9  UNL     1     -34.363  18.046   0.231  1.00 20.00     0.071 C 
BRANCH   9  10
HETATM   10  S10 UNL     1     -32.793  18.780  -0.315  1.00 20.00    -0.182 SA
HETATM   11  H22 UNL     1     -33.322  19.929  -0.756  1.00 20.00     0.101 HD
ENDBRANCH   9  10
ENDBRANCH   8   9
ENDBRANCH   7   8
ENDBRANCH   6   7
TORSDOF 4
ENDMDL
MODEL 5
REMARK VINA RESULT:      -4.2     11.336     12.134
REMARK  4 active torsions:
REMARK  status: ('A' for Active; 'I' for Inactive)
REMARK    1  A    between atoms: C6_6  and  C7_7 
REMARK    2  A    between atoms: C7_7  and  C8_8 
REMARK    3  A    between atoms: C8_8  and  C9_9 
REMARK    4  A    between atoms: C9_9  and  S10_10 
ROOT
HETATM    1  C1  UNL     1     -34.122  18.439   1.535  1.00 20.00     0.000 A 
HETATM    2  C2  UNL     1     -35.064  17.530   1.055  1.00 20.00     0.001 A 
HETATM    3  C3  UNL     1     -33.043  18.814   0.735  1.00 20.00     0.001 A 
HETATM    4  C4  UNL     1     -34.927  16.996  -0.226  1.00 20.00     0.007 A 
HETATM    5  C5  UNL     1     -32.907  18.280  -0.546  1.00 20.00     0.007 A 
HETATM    6  C6  UNL     1     -33.849  17.371  -1.026  1.00 20.00    -0.058 A 
ENDROOT
BRANCH   6   7
HETATM    7  C7  UNL     1     -33.702  16.800  -2.397  1.00 20.00     0.039 C 
BRANCH   7   8
HETATM    8  C8  UNL     1     -34.518  15.516  -2.642  1.00 20.00     0.014 C 
BRANCH   8   9
HETATM    9  C9  UNL     1     -33.791  14.528  -3.555  1.00 20.00     0.071 C 
BRANCH   9  10
HETATM   10  S10 UNL     1     -34.980  13.450  -4.407  1.00 20.00    -0.182 SA
HETATM   11  H22 UNL     1     -34.083  12.535  -4.799  1.00 20.00     0.101 HD
ENDBRANCH   9  10
ENDBRANCH   8   9
ENDBRANCH   7   8
ENDBRANCH   6   7
TORSDOF 4
ENDMDL
MODEL 6
REMARK VINA RESULT:      -4.2     11.247     12.051
REMARK  4 active torsions:
REMARK  status: ('A' for Active; 'I' for Inactive)
REMARK    1  A    between atoms: C6_6  and  C7_7 
REMARK    2  A    between atoms: C7_7  and  C8_8 
REMARK    3  A    between atoms: C8_8  and  C9_9 
REMARK    4  A    between atoms: C9_9  and  S10_10 
ROOT
HETATM    1  C1  UNL     1     -34.169  18.438   1.533  1.00 20.00     0.000 A 
HETATM    2  C2  UNL     1     -33.094  18.817   0.730  1.00 20.00     0.001 A 
HETATM    3  C3  UNL     1     -35.099  17.512   1.061  1.00 20.00     0.001 A 
HETATM    4  C4  UNL     1     -32.949  18.271  -0.546  1.00 20.00     0.007 A 
HETATM    5  C5  UNL     1     -34.954  16.966  -0.214  1.00 20.00     0.007 A 
HETATM    6  C6  UNL     1     -33.879  17.345  -1.017  1.00 20.00    -0.058 A 
ENDROOT
BRANCH   6   7
HETATM    7  C7  UNL     1     -33.724  16.761  -2.381  1.00 20.00     0.039 C 
BRANCH   7   8
HETATM    8  C8  UNL     1     -34.608  15.527  -2.648  1.00 20.00     0.014 C 
BRANCH   8   9
HETATM    9  C9  UNL     1     -33.875  14.446  -3.443  1.00 20.00     0.071 C 
BRANCH   9  10
HETATM   10  S10 UNL     1     -35.049  13.462  -4.419  1.00 20.00    -0.182 SA
HETATM   11  H22 UNL     1     -34.389  13.566  -5.580  1.00 20.00     0.101 HD
ENDBRANCH   9  10
ENDBRANCH   8   9
ENDBRANCH   7   8
ENDBRANCH   6   7
TORSDOF 4
ENDMDL
MODEL 7
REMARK VINA RESULT:      -4.1     11.228     12.440
REMARK  4 active torsions:
REMARK  status: ('A' for Active; 'I' for Inactive)
REMARK    1  A    between atoms: C6_6  and  C7_7 
REMARK    2  A    between atoms: C7_7  and  C8_8 
REMARK    3  A    between atoms: C8_8  and  C9_9 
REMARK    4  A    between atoms: C9_9  and  S10_10 
ROOT
HETATM    1  C1  UNL     1     -34.838  13.854  -5.874  1.00 20.00     0.000 A 
HETATM    2  C2  UNL     1     -34.856  13.315  -4.588  1.00 20.00     0.001 A 
HETATM    3  C3  UNL     1     -34.437  15.175  -6.071  1.00 20.00     0.001 A 
HETATM    4  C4  UNL     1     -34.473  14.097  -3.498  1.00 20.00     0.007 A 
HETATM    5  C5  UNL     1     -34.054  15.957  -4.982  1.00 20.00     0.007 A 
HETATM    6  C6  UNL     1     -34.072  15.418  -3.696  1.00 20.00    -0.058 A 
ENDROOT
BRANCH   6   7
HETATM    7  C7  UNL     1     -33.662  16.255  -2.531  1.00 20.00     0.039 C 
BRANCH   7   8
HETATM    8  C8  UNL     1     -34.729  16.374  -1.425  1.00 20.00     0.014 C 
BRANCH   8   9
HETATM    9  C9  UNL     1     -34.314  17.341  -0.316  1.00 20.00     0.071 C 
BRANCH   9  10
HETATM   10  S10 UNL     1     -35.775  18.122   0.431  1.00 20.00    -0.182 SA
HETATM   11  H22 UNL     1     -35.098  18.873   1.310  1.00 20.00     0.101 HD
ENDBRANCH   9  10
ENDBRANCH   8   9
ENDBRANCH   7   8
ENDBRANCH   6   7
TORSDOF 4
ENDMDL
MODEL 8
REMARK VINA RESULT:      -4.0     11.311     12.493
REMARK  4 active torsions:
REMARK  status: ('A' for Active; 'I' for Inactive)
REMARK    1  A    between atoms: C6_6  and  C7_7 
REMARK    2  A    between atoms: C7_7  and  C8_8 
REMARK    3  A    between atoms: C8_8  and  C9_9 
REMARK    4  A    between atoms: C9_9  and  S10_10 
ROOT
HETATM    1  C1  UNL     1     -34.733  14.020  -5.888  1.00 20.00     0.000 A 
HETATM    2  C2  UNL     1     -34.358  15.355  -6.035  1.00 20.00     0.001 A 
HETATM    3  C3  UNL     1     -34.749  13.436  -4.621  1.00 20.00     0.001 A 
HETATM    4  C4  UNL     1     -33.999  16.107  -4.916  1.00 20.00     0.007 A 
HETATM    5  C5  UNL     1     -34.390  14.188  -3.503  1.00 20.00     0.007 A 
HETATM    6  C6  UNL     1     -34.015  15.522  -3.650  1.00 20.00    -0.058 A 
ENDROOT
BRANCH   6   7
HETATM    7  C7  UNL     1     -33.631  16.326  -2.453  1.00 20.00     0.039 C 
BRANCH   7   8
HETATM    8  C8  UNL     1     -34.707  16.378  -1.350  1.00 20.00     0.014 C 
BRANCH   8   9
HETATM    9  C9  UNL     1     -34.396  17.428  -0.283  1.00 20.00     0.071 C 
BRANCH   9  10
HETATM   10  S10 UNL     1     -35.882  18.396   0.114  1.00 20.00    -0.182 SA
HETATM   11  H22 UNL     1     -35.405  18.924   1.249  1.00 20.00     0.101 HD
ENDBRANCH   9  10
ENDBRANCH   8   9
ENDBRANCH   7   8
ENDBRANCH   6   7
TORSDOF 4
ENDMDL
MODEL 9
REMARK VINA RESULT:      -4.0     11.152     12.319
REMARK  4 active torsions:
REMARK  status: ('A' for Active; 'I' for Inactive)
REMARK    1  A    between atoms: C6_6  and  C7_7 
REMARK    2  A    between atoms: C7_7  and  C8_8 
REMARK    3  A    between atoms: C8_8  and  C9_9 
REMARK    4  A    between atoms: C9_9  and  S10_10 
ROOT
HETATM    1  C1  UNL     1     -34.125  18.338   0.277  1.00 20.00     0.000 A 
HETATM    2  C2  UNL     1     -34.789  17.121   0.132  1.00 20.00     0.001 A 
HETATM    3  C3  UNL     1     -33.429  18.887  -0.799  1.00 20.00     0.001 A 
HETATM    4  C4  UNL     1     -34.757  16.451  -1.091  1.00 20.00     0.007 A 
HETATM    5  C5  UNL     1     -33.397  18.216  -2.022  1.00 20.00     0.007 A 
HETATM    6  C6  UNL     1     -34.061  16.999  -2.168  1.00 20.00    -0.058 A 
ENDROOT
BRANCH   6   7
HETATM    7  C7  UNL     1     -34.026  16.283  -3.476  1.00 20.00     0.039 C 
BRANCH   7   8
HETATM    8  C8  UNL     1     -32.980  15.154  -3.556  1.00 20.00     0.014 C 
BRANCH   8   9
HETATM    9  C9  UNL     1     -33.608  13.800  -3.894  1.00 20.00     0.071 C 
BRANCH   9  10
HETATM   10  S10 UNL     1     -35.390  13.980  -4.200  1.00 20.00    -0.182 SA
HETATM   11  H22 UNL     1     -35.302  13.985  -5.536  1.00 20.00     0.101 HD
ENDBRANCH   9  10
ENDBRANCH   8   9
ENDBRANCH   7   8
ENDBRANCH   6   7
TORSDOF 4
ENDMDL
