MODEL 1
REMARK VINA RESULT:      -5.8      0.000      0.000
REMARK  4 active torsions:
REMARK  status: ('A' for Active; 'I' for Inactive)
REMARK    1  A    between atoms: C6_6  and  C7_7 
REMARK    2  A    between atoms: C7_7  and  C8_8 
REMARK    3  A    between atoms: C8_8  and  C9_9 
REMARK    4  A    between atoms: C9_9  and  O10_10 
ROOT
HETATM    1  C1  UNL     1     -34.987   5.093   6.338  1.00 20.00     0.000 A 
HETATM    2  C2  UNL     1     -34.121   6.187   6.352  1.00 20.00     0.001 A 
HETATM    3  C3  UNL     1     -35.225   4.407   5.146  1.00 20.00     0.001 A 
HETATM    4  C4  UNL     1     -33.494   6.594   5.174  1.00 20.00     0.007 A 
HETATM    5  C5  UNL     1     -34.598   4.815   3.970  1.00 20.00     0.007 A 
HETATM    6  C6  UNL     1     -33.732   5.908   3.983  1.00 20.00    -0.058 A 
ENDROOT
BRANCH   6   7
HETATM    7  C7  UNL     1     -33.062   6.345   2.724  1.00 20.00     0.041 C 
BRANCH   7   8
HETATM    8  C8  UNL     1     -32.147   7.557   2.947  1.00 20.00     0.030 C 
BRANCH   8   9
HETATM    9  C9  UNL     1     -31.916   8.345   1.664  1.00 20.00     0.164 C 
BRANCH   9  10
HETATM   10  O10 UNL     1     -32.557   9.608   1.781  1.00 20.00    -0.401 OA
HETATM   11  H22 UNL     1     -31.854  10.278   1.807  1.00 20.00     0.209 HD
ENDBRANCH   9  10
ENDBRANCH   8   9
ENDBRANCH   7   8
ENDBRANCH   6   7
TORSDOF 4
ENDMDL
MODEL 2
REMARK VINA RESULT:      -5.7      0.026      1.528
REMARK  4 active torsions:
REMARK  status: ('A' for Active; 'I' for Inactive)
REMARK    1  A    between atoms: C6_6  and  C7_7 
REMARK    2  A    between atoms: C7_7  and  C8_8 
REMARK    3  A    between atoms: C8_8  and  C9_9 
REMARK    4  A    between atoms: C9_9  and  O10_10 
ROOT
HETATM    1  C1  UNL     1     -34.985   5.092   6.326  1.00 20.00     0.000 A 
HETATM    2  C2  UNL     1     -35.211   4.404   5.134  1.00 20.00     0.001 A 
HETATM    3  C3  UNL     1     -34.131   6.195   6.343  1.00 20.00     0.001 A 
HETATM    4  C4  UNL     1     -34.584   4.820   3.959  1.00 20.00     0.007 A 
HETATM    5  C5  UNL     1     -33.504   6.610   5.169  1.00 20.00     0.007 A 
HETATM    6  C6  UNL     1     -33.730   5.923   3.977  1.00 20.00    -0.058 A 
ENDROOT
BRANCH   6   7
HETATM    7  C7  UNL     1     -33.059   6.367   2.721  1.00 20.00     0.041 C 
BRANCH   7   8
HETATM    8  C8  UNL     1     -32.167   7.596   2.945  1.00 20.00     0.030 C 
BRANCH   8   9
HETATM    9  C9  UNL     1     -31.921   8.368   1.655  1.00 20.00     0.164 C 
BRANCH   9  10
HETATM   10  O10 UNL     1     -32.542   9.642   1.758  1.00 20.00    -0.401 OA
HETATM   11  H22 UNL     1     -33.498   9.484   1.821  1.00 20.00     0.209 HD
ENDBRANCH   9  10
ENDBRANCH   8   9
ENDBRANCH   7   8
ENDBRANCH   6   7
TORSDOF 4
ENDMDL
MODEL 3
REMARK VINA RESULT:      -4.5     11.190     12.286
REMARK  4 active torsions:
REMARK  status: ('A' for Active; 'I' for Inactive)
REMARK    1  A    between atoms: C6_6  and  C7_7 
REMARK    2  A    between atoms: C7_7  and  C8_8 
REMARK    3  A    between atoms: C8_8  and  C9_9 
REMARK    4  A    between atoms: C9_9  and  O10_10 
ROOT
HETATM    1  C1  UNL     1     -33.527  18.782  -0.734  1.00 20.00     0.000 A 
HETATM    2  C2  UNL     1     -33.431  18.725  -2.124  1.00 20.00     0.001 A 
HETATM    3  C3  UNL     1     -34.129  17.736  -0.033  1.00 20.00     0.001 A 
HETATM    4  C4  UNL     1     -33.938  17.624  -2.814  1.00 20.00     0.007 A 
HETATM    5  C5  UNL     1     -34.635  16.635  -0.723  1.00 20.00     0.007 A 
HETATM    6  C6  UNL     1     -34.540  16.578  -2.113  1.00 20.00    -0.058 A 
ENDROOT
BRANCH   6   7
HETATM    7  C7  UNL     1     -35.082  15.401  -2.851  1.00 20.00     0.041 C 
BRANCH   7   8
HETATM    8  C8  UNL     1     -33.968  14.516  -3.426  1.00 20.00     0.030 C 
BRANCH   8   9
HETATM    9  C9  UNL     1     -34.437  13.716  -4.634  1.00 20.00     0.164 C 
BRANCH   9  10
HETATM   10  O10 UNL     1     -35.176  12.590  -4.180  1.00 20.00    -0.401 OA
HETATM   11  H22 UNL     1     -35.964  12.935  -3.729  1.00 20.00     0.209 HD
ENDBRANCH   9  10
ENDBRANCH   8   9
ENDBRANCH   7   8
ENDBRANCH   6   7
TORSDOF 4
ENDMDL
MODEL 4
REMARK VINA RESULT:      -4.5     11.169     12.255
REMARK  4 active torsions:
REMARK  status: ('A' for Active; 'I' for Inactive)
REMARK    1  A    between atoms: C6_6  and  C7_7 
REMARK    2  A    between atoms: C7_7  and  C8_8 
REMARK    3  A    between atoms: C8_8  and  C9_9 
REMARK    4  A    between atoms: C9_9  and  O10_10 
ROOT
HETATM    1  C1  UNL     1     -33.537  18.757  -0.634  1.00 20.00     0.000 A 
HETATM    2  C2  UNL     1     -34.171  17.707   0.029  1.00 20.00     0.001 A 
HETATM    3  C3  UNL     1     -33.399  18.724  -2.022  1.00 20.00     0.001 A 
HETATM    4  C4  UNL     1     -34.667  16.623  -0.695  1.00 20.00     0.007 A 
HETATM    5  C5  UNL     1     -33.896  17.640  -2.746  1.00 20.00     0.007 A 
HETATM    6  C6  UNL     1     -34.530  16.590  -2.083  1.00 20.00    -0.058 A 
ENDROOT
BRANCH   6   7
HETATM    7  C7  UNL     1     -35.060  15.431  -2.857  1.00 20.00     0.041 C 
BRANCH   7   8
HETATM    8  C8  UNL     1     -33.938  14.526  -3.386  1.00 20.00     0.030 C 
BRANCH   8   9
HETATM    9  C9  UNL     1     -34.381  13.707  -4.590  1.00 20.00     0.164 C 
BRANCH   9  10
HETATM   10  O10 UNL     1     -35.147  12.600  -4.135  1.00 20.00    -0.401 OA
HETATM   11  H22 UNL     1     -35.119  12.619  -3.164  1.00 20.00     0.209 HD
ENDBRANCH   9  10
ENDBRANCH   8   9
ENDBRANCH   7   8
ENDBRANCH   6   7
TORSDOF 4
ENDMDL
MODEL 5
REMARK VINA RESULT:      -4.4     11.678     12.318
REMARK  4 active torsions:
REMARK  status: ('A' for Active; 'I' for Inactive)
REMARK    1  A    between atoms: C6_6  and  C7_7 
REMARK    2  A    between atoms: C7_7  and  C8_8 
REMARK    3  A    between atoms: C8_8  and  C9_9 
REMARK    4  A    between atoms: C9_9  and  O10_10 
ROOT
HETATM    1  C1  UNL     1     -33.426  18.819   1.315  1.00 20.00     0.000 A 
HETATM    2  C2  UNL     1     -34.597  18.076   1.465  1.00 20.00     0.001 A 
HETATM    3  C3  UNL     1     -32.695  18.738   0.129  1.00 20.00     0.001 A 
HETATM    4  C4  UNL     1     -35.037  17.253   0.429  1.00 20.00     0.007 A 
HETATM    5  C5  UNL     1     -33.136  17.914  -0.906  1.00 20.00     0.007 A 
HETATM    6  C6  UNL     1     -34.307  17.171  -0.757  1.00 20.00    -0.058 A 
ENDROOT
BRANCH   6   7
HETATM    7  C7  UNL     1     -34.778  16.290  -1.864  1.00 20.00     0.041 C 
BRANCH   7   8
HETATM    8  C8  UNL     1     -33.624  15.825  -2.763  1.00 20.00     0.030 C 
BRANCH   8   9
HETATM    9  C9  UNL     1     -33.800  16.284  -4.204  1.00 20.00     0.164 C 
BRANCH   9  10
HETATM   10  O10 UNL     1     -32.591  16.046  -4.912  1.00 20.00    -0.401 OA
HETATM   11  H22 UNL     1     -32.020  16.816  -4.760  1.00 20.00     0.209 HD
ENDBRANCH   9  10
ENDBRANCH   8   9
ENDBRANCH   7   8
ENDBRANCH   6   7
TORSDOF 4
ENDMDL
MODEL 6
REMARK VINA RESULT:      -4.4     11.231     12.289
REMARK  4 active torsions:
REMARK  status: ('A' for Active; 'I' for Inactive)
REMARK    1  A    between atoms: C6_6  and  C7_7 
REMARK    2  A    between atoms: C7_7  and  C8_8 
REMARK    3  A    between atoms: C8_8  and  C9_9 
REMARK    4  A    between atoms: C9_9  and  O10_10 
ROOT
HETATM    1  C1  UNL     1     -34.588  18.079  -0.782  1.00 20.00     0.000 A 
HETATM    2  C2  UNL     1     -34.765  16.696  -0.753  1.00 20.00     0.001 A 
HETATM    3  C3  UNL     1     -34.045  18.689  -1.913  1.00 20.00     0.001 A 
HETATM    4  C4  UNL     1     -34.399  15.923  -1.854  1.00 20.00     0.007 A 
HETATM    5  C5  UNL     1     -33.679  17.916  -3.014  1.00 20.00     0.007 A 
HETATM    6  C6  UNL     1     -33.856  16.533  -2.986  1.00 20.00    -0.058 A 
ENDROOT
BRANCH   6   7
HETATM    7  C7  UNL     1     -33.464  15.706  -4.163  1.00 20.00     0.041 C 
BRANCH   7   8
HETATM    8  C8  UNL     1     -33.570  14.201  -3.874  1.00 20.00     0.030 C 
BRANCH   8   9
HETATM    9  C9  UNL     1     -34.530  13.501  -4.825  1.00 20.00     0.164 C 
BRANCH   9  10
HETATM   10  O10 UNL     1     -35.315  12.575  -4.086  1.00 20.00    -0.401 OA
HETATM   11  H22 UNL     1     -36.242  12.742  -4.321  1.00 20.00     0.209 HD
ENDBRANCH   9  10
ENDBRANCH   8   9
ENDBRANCH   7   8
ENDBRANCH   6   7
TORSDOF 4
ENDMDL
MODEL 7
REMARK VINA RESULT:      -4.4     11.235     11.829
REMARK  4 active torsions:
REMARK  status: ('A' for Active; 'I' for Inactive)
REMARK    1  A    between atoms: C6_6  and  C7_7 
REMARK    2  A    between atoms: C7_7  and  C8_8 
REMARK    3  A    between atoms: C8_8  and  C9_9 
REMARK    4  A    between atoms: C9_9  and  O10_10 
ROOT
HETATM    1  C1  UNL     1     -35.111  13.370  -4.440  1.00 20.00     0.000 A 
HETATM    2  C2  UNL     1     -33.759  13.589  -4.176  1.00 20.00     0.001 A 
HETATM    3  C3  UNL     1     -36.073  14.236  -3.921  1.00 20.00     0.001 A 
HETATM    4  C4  UNL     1     -33.370  14.676  -3.392  1.00 20.00     0.007 A 
HETATM    5  C5  UNL     1     -35.684  15.322  -3.138  1.00 20.00     0.007 A 
HETATM    6  C6  UNL     1     -34.332  15.543  -2.873  1.00 20.00    -0.058 A 
ENDROOT
BRANCH   6   7
HETATM    7  C7  UNL     1     -33.916  16.703  -2.035  1.00 20.00     0.041 C 
BRANCH   7   8
HETATM    8  C8  UNL     1     -34.645  16.732  -0.684  1.00 20.00     0.030 C 
BRANCH   8   9
HETATM    9  C9  UNL     1     -35.440  18.016  -0.489  1.00 20.00     0.164 C 
BRANCH   9  10
HETATM   10  O10 UNL     1     -36.340  17.838   0.596  1.00 20.00    -0.401 OA
HETATM   11  H22 UNL     1     -35.872  18.122   1.399  1.00 20.00     0.209 HD
ENDBRANCH   9  10
ENDBRANCH   8   9
ENDBRANCH   7   8
ENDBRANCH   6   7
TORSDOF 4
ENDMDL
MODEL 8
REMARK VINA RESULT:      -4.2     10.200     11.288
REMARK  4 active torsions:
REMARK  status: ('A' for Active; 'I' for Inactive)
REMARK    1  A    between atoms: C6_6  and  C7_7 
REMARK    2  A    between atoms: C7_7  and  C8_8 
REMARK    3  A    between atoms: C8_8  and  C9_9 
REMARK    4  A    between atoms: C9_9  and  O10_10 
ROOT
HETATM    1  C1  UNL     1     -41.076   6.986  -1.056  1.00 20.00     0.000 A 
HETATM    2  C2  UNL     1     -41.948   6.979  -2.145  1.00 20.00     0.001 A 
HETATM    3  C3  UNL     1     -40.651   5.781  -0.495  1.00 20.00     0.001 A 
HETATM    4  C4  UNL     1     -42.395   5.768  -2.673  1.00 20.00     0.007 A 
HETATM    5  C5  UNL     1     -41.098   4.570  -1.024  1.00 20.00     0.007 A 
HETATM    6  C6  UNL     1     -41.970   4.563  -2.112  1.00 20.00    -0.058 A 
ENDROOT
BRANCH   6   7
HETATM    7  C7  UNL     1     -42.448   3.268  -2.676  1.00 20.00     0.041 C 
BRANCH   7   8
HETATM    8  C8  UNL     1     -41.308   2.455  -3.305  1.00 20.00     0.030 C 
BRANCH   8   9
HETATM    9  C9  UNL     1     -41.825   1.260  -4.096  1.00 20.00     0.164 C 
BRANCH   9  10
HETATM   10  O10 UNL     1     -42.351   1.722  -5.332  1.00 20.00    -0.401 OA
HETATM   11  H22 UNL     1     -42.526   0.935  -5.874  1.00 20.00     0.209 HD
ENDBRANCH   9  10
ENDBRANCH   8   9
ENDBRANCH   7   8
ENDBRANCH   6   7
TORSDOF 4
ENDMDL
MODEL 9
REMARK VINA RESULT:      -4.2     11.061     12.272
REMARK  4 active torsions:
REMARK  status: ('A' for Active; 'I' for Inactive)
REMARK    1  A    between atoms: C6_6  and  C7_7 
REMARK    2  A    between atoms: C7_7  and  C8_8 
REMARK    3  A    between atoms: C8_8  and  C9_9 
REMARK    4  A    between atoms: C9_9  and  O10_10 
ROOT
HETATM    1  C1  UNL     1     -34.825  13.791  -5.836  1.00 20.00     0.000 A 
HETATM    2  C2  UNL     1     -34.812  13.284  -4.537  1.00 20.00     0.001 A 
HETATM    3  C3  UNL     1     -34.471  15.121  -6.069  1.00 20.00     0.001 A 
HETATM    4  C4  UNL     1     -34.445  14.105  -3.471  1.00 20.00     0.007 A 
HETATM    5  C5  UNL     1     -34.103  15.941  -5.003  1.00 20.00     0.007 A 
HETATM    6  C6  UNL     1     -34.091  15.435  -3.704  1.00 20.00    -0.058 A 
ENDROOT
BRANCH   6   7
HETATM    7  C7  UNL     1     -33.699  16.312  -2.564  1.00 20.00     0.041 C 
BRANCH   7   8
HETATM    8  C8  UNL     1     -34.760  16.328  -1.455  1.00 20.00     0.030 C 
BRANCH   8   9
HETATM    9  C9  UNL     1     -34.384  17.264  -0.314  1.00 20.00     0.164 C 
BRANCH   9  10
HETATM   10  O10 UNL     1     -35.311  17.088   0.748  1.00 20.00    -0.401 OA
HETATM   11  H22 UNL     1     -34.838  16.627   1.460  1.00 20.00     0.209 HD
ENDBRANCH   9  10
ENDBRANCH   8   9
ENDBRANCH   7   8
ENDBRANCH   6   7
TORSDOF 4
ENDMDL
