MODEL 1
REMARK VINA RESULT:      -4.4      0.000      0.000
REMARK  2 active torsions:
REMARK  status: ('A' for Active; 'I' for Inactive)
REMARK    1  A    between atoms: C5_5  and  N8_8 
REMARK    2  A    between atoms: C6_6  and  S11_11 
ROOT
HETATM    1  C1  UNL     1     -34.478  14.905  -6.175  1.00 20.00     0.037 A 
HETATM    2  C2  UNL     1     -33.475  15.782  -4.160  1.00 20.00     0.037 A 
HETATM    3  C3  UNL     1     -34.472  16.182  -6.735  1.00 20.00     0.021 A 
HETATM    4  C4  UNL     1     -33.468  17.060  -4.719  1.00 20.00     0.021 A 
HETATM    5  C5  UNL     1     -33.979  14.704  -4.887  1.00 20.00     0.102 A 
HETATM    6  C6  UNL     1     -33.967  17.260  -6.007  1.00 20.00    -0.000 A 
ENDROOT
BRANCH   5   7
HETATM    7  N8  UNL     1     -33.984  13.403  -4.319  1.00 20.00    -0.116 N 
HETATM    8  O9  UNL     1     -35.023  12.706  -4.404  1.00 20.00    -0.532 OA
HETATM    9  O10 UNL     1     -32.948  12.986  -3.746  1.00 20.00    -0.532 OA
ENDBRANCH   5   7
BRANCH   6  10
HETATM   10  S11 UNL     1     -33.960  18.892  -6.721  1.00 20.00    -0.134 SA
HETATM   11  C7  UNL     1     -35.541  18.847  -7.592  1.00 20.00     0.095 C 
ENDBRANCH   6  10
TORSDOF 2
ENDMDL
MODEL 2
REMARK VINA RESULT:      -4.3      3.055      3.556
REMARK  2 active torsions:
REMARK  status: ('A' for Active; 'I' for Inactive)
REMARK    1  A    between atoms: C5_5  and  N8_8 
REMARK    2  A    between atoms: C6_6  and  S11_11 
ROOT
HETATM    1  C1  UNL     1     -35.988  14.815  -3.651  1.00 20.00     0.037 A 
HETATM    2  C2  UNL     1     -33.793  15.462  -2.878  1.00 20.00     0.037 A 
HETATM    3  C3  UNL     1     -36.519  15.996  -3.134  1.00 20.00     0.021 A 
HETATM    4  C4  UNL     1     -34.323  16.644  -2.362  1.00 20.00     0.021 A 
HETATM    5  C5  UNL     1     -34.624  14.547  -3.524  1.00 20.00     0.102 A 
HETATM    6  C6  UNL     1     -35.687  16.912  -2.489  1.00 20.00    -0.000 A 
ENDROOT
BRANCH   5   7
HETATM    7  N8  UNL     1     -34.085  13.345  -4.051  1.00 20.00    -0.116 N 
HETATM    8  O9  UNL     1     -34.794  12.639  -4.806  1.00 20.00    -0.532 OA
HETATM    9  O10 UNL     1     -32.910  13.021  -3.746  1.00 20.00    -0.532 OA
ENDBRANCH   5   7
BRANCH   6  10
HETATM   10  S11 UNL     1     -36.365  18.420  -1.829  1.00 20.00    -0.134 SA
HETATM   11  C7  UNL     1     -35.954  18.198  -0.084  1.00 20.00     0.095 C 
ENDBRANCH   6  10
TORSDOF 2
ENDMDL
MODEL 3
REMARK VINA RESULT:      -4.3      3.048      3.766
REMARK  2 active torsions:
REMARK  status: ('A' for Active; 'I' for Inactive)
REMARK    1  A    between atoms: C5_5  and  N8_8 
REMARK    2  A    between atoms: C6_6  and  S11_11 
ROOT
HETATM    1  C1  UNL     1     -33.806  15.479  -2.881  1.00 20.00     0.037 A 
HETATM    2  C2  UNL     1     -36.008  14.841  -3.644  1.00 20.00     0.037 A 
HETATM    3  C3  UNL     1     -34.327  16.666  -2.368  1.00 20.00     0.021 A 
HETATM    4  C4  UNL     1     -36.530  16.029  -3.131  1.00 20.00     0.021 A 
HETATM    5  C5  UNL     1     -34.647  14.566  -3.519  1.00 20.00     0.102 A 
HETATM    6  C6  UNL     1     -35.689  16.942  -2.493  1.00 20.00    -0.000 A 
ENDROOT
BRANCH   5   7
HETATM    7  N8  UNL     1     -34.115  13.357  -4.040  1.00 20.00    -0.116 N 
HETATM    8  O9  UNL     1     -34.845  12.629  -4.755  1.00 20.00    -0.532 OA
HETATM    9  O10 UNL     1     -32.929  13.048  -3.770  1.00 20.00    -0.532 OA
ENDBRANCH   5   7
BRANCH   6  10
HETATM   10  S11 UNL     1     -36.355  18.459  -1.839  1.00 20.00    -0.134 SA
HETATM   11  C7  UNL     1     -35.951  18.238  -0.093  1.00 20.00     0.095 C 
ENDBRANCH   6  10
TORSDOF 2
ENDMDL
MODEL 4
REMARK VINA RESULT:      -4.3      2.450      3.503
REMARK  2 active torsions:
REMARK  status: ('A' for Active; 'I' for Inactive)
REMARK    1  A    between atoms: C5_5  and  N8_8 
REMARK    2  A    between atoms: C6_6  and  S11_11 
ROOT
HETATM    1  C1  UNL     1     -34.803  14.864  -3.114  1.00 20.00     0.037 A 
HETATM    2  C2  UNL     1     -33.913  16.041  -5.027  1.00 20.00     0.037 A 
HETATM    3  C3  UNL     1     -34.521  15.964  -2.305  1.00 20.00     0.021 A 
HETATM    4  C4  UNL     1     -33.632  17.142  -4.219  1.00 20.00     0.021 A 
HETATM    5  C5  UNL     1     -34.499  14.901  -4.476  1.00 20.00     0.102 A 
HETATM    6  C6  UNL     1     -33.936  17.104  -2.857  1.00 20.00    -0.000 A 
ENDROOT
BRANCH   5   7
HETATM    7  N8  UNL     1     -34.787  13.781  -5.298  1.00 20.00    -0.116 N 
HETATM    8  O9  UNL     1     -35.078  13.969  -6.503  1.00 20.00    -0.532 OA
HETATM    9  O10 UNL     1     -34.743  12.631  -4.796  1.00 20.00    -0.532 OA
ENDBRANCH   5   7
BRANCH   6  10
HETATM   10  S11 UNL     1     -33.575  18.510  -1.825  1.00 20.00    -0.134 SA
HETATM   11  C7  UNL     1     -34.042  17.831  -0.217  1.00 20.00     0.095 C 
ENDBRANCH   6  10
TORSDOF 2
ENDMDL
MODEL 5
REMARK VINA RESULT:      -3.9      1.354      1.696
REMARK  2 active torsions:
REMARK  status: ('A' for Active; 'I' for Inactive)
REMARK    1  A    between atoms: C5_5  and  N8_8 
REMARK    2  A    between atoms: C6_6  and  S11_11 
ROOT
HETATM    1  C1  UNL     1     -35.660  15.293  -4.456  1.00 20.00     0.037 A 
HETATM    2  C2  UNL     1     -33.278  15.688  -4.526  1.00 20.00     0.037 A 
HETATM    3  C3  UNL     1     -35.893  16.650  -4.680  1.00 20.00     0.021 A 
HETATM    4  C4  UNL     1     -33.510  17.045  -4.751  1.00 20.00     0.021 A 
HETATM    5  C5  UNL     1     -34.353  14.812  -4.379  1.00 20.00     0.102 A 
HETATM    6  C6  UNL     1     -34.817  17.527  -4.828  1.00 20.00    -0.000 A 
ENDROOT
BRANCH   5   7
HETATM    7  N8  UNL     1     -34.117  13.430  -4.152  1.00 20.00    -0.116 N 
HETATM    8  O9  UNL     1     -33.029  13.074  -3.640  1.00 20.00    -0.532 OA
HETATM    9  O10 UNL     1     -35.006  12.602  -4.469  1.00 20.00    -0.532 OA
ENDBRANCH   5   7
BRANCH   6  10
HETATM   10  S11 UNL     1     -35.114  19.259  -5.114  1.00 20.00    -0.134 SA
HETATM   11  C7  UNL     1     -36.714  19.160  -5.943  1.00 20.00     0.095 C 
ENDBRANCH   6  10
TORSDOF 2
ENDMDL
MODEL 6
REMARK VINA RESULT:      -3.9      4.386      5.383
REMARK  2 active torsions:
REMARK  status: ('A' for Active; 'I' for Inactive)
REMARK    1  A    between atoms: C5_5  and  N8_8 
REMARK    2  A    between atoms: C6_6  and  S11_11 
ROOT
HETATM    1  C1  UNL     1     -34.540  16.249  -1.895  1.00 20.00     0.037 A 
HETATM    2  C2  UNL     1     -33.569  18.328  -2.647  1.00 20.00     0.037 A 
HETATM    3  C3  UNL     1     -34.589  16.742  -0.591  1.00 20.00     0.021 A 
HETATM    4  C4  UNL     1     -33.617  18.823  -1.344  1.00 20.00     0.021 A 
HETATM    5  C5  UNL     1     -34.030  17.042  -2.923  1.00 20.00     0.102 A 
HETATM    6  C6  UNL     1     -34.127  18.030  -0.315  1.00 20.00    -0.000 A 
ENDROOT
BRANCH   5   7
HETATM    7  N8  UNL     1     -33.983  16.538  -4.250  1.00 20.00    -0.116 N 
HETATM    8  O9  UNL     1     -35.052  16.208  -4.815  1.00 20.00    -0.532 OA
HETATM    9  O10 UNL     1     -32.869  16.437  -4.822  1.00 20.00    -0.532 OA
ENDBRANCH   5   7
BRANCH   6  10
HETATM   10  S11 UNL     1     -34.188  18.660   1.349  1.00 20.00    -0.134 SA
HETATM   11  C7  UNL     1     -35.463  17.581   2.035  1.00 20.00     0.095 C 
ENDBRANCH   6  10
TORSDOF 2
ENDMDL
MODEL 7
REMARK VINA RESULT:      -3.9      4.157      4.924
REMARK  2 active torsions:
REMARK  status: ('A' for Active; 'I' for Inactive)
REMARK    1  A    between atoms: C5_5  and  N8_8 
REMARK    2  A    between atoms: C6_6  and  S11_11 
ROOT
HETATM    1  C1  UNL     1     -34.454  16.302  -1.608  1.00 20.00     0.037 A 
HETATM    2  C2  UNL     1     -33.718  17.920  -3.243  1.00 20.00     0.037 A 
HETATM    3  C3  UNL     1     -34.950  15.494  -2.631  1.00 20.00     0.021 A 
HETATM    4  C4  UNL     1     -34.213  17.112  -4.266  1.00 20.00     0.021 A 
HETATM    5  C5  UNL     1     -33.838  17.516  -1.914  1.00 20.00     0.102 A 
HETATM    6  C6  UNL     1     -34.830  15.899  -3.960  1.00 20.00    -0.000 A 
ENDROOT
BRANCH   5   7
HETATM    7  N8  UNL     1     -33.333  18.337  -0.872  1.00 20.00    -0.116 N 
HETATM    8  O9  UNL     1     -33.696  18.117   0.308  1.00 20.00    -0.532 OA
HETATM    9  O10 UNL     1     -32.535  19.263  -1.160  1.00 20.00    -0.532 OA
ENDBRANCH   5   7
BRANCH   6  10
HETATM   10  S11 UNL     1     -35.463  14.867  -5.267  1.00 20.00    -0.134 SA
HETATM   11  C7  UNL     1     -34.814  13.269  -4.732  1.00 20.00     0.095 C 
ENDBRANCH   6  10
TORSDOF 2
ENDMDL
MODEL 8
REMARK VINA RESULT:      -3.8     13.516     14.455
REMARK  2 active torsions:
REMARK  status: ('A' for Active; 'I' for Inactive)
REMARK    1  A    between atoms: C5_5  and  N8_8 
REMARK    2  A    between atoms: C6_6  and  S11_11 
ROOT
HETATM    1  C1  UNL     1     -41.026   4.334  -1.599  1.00 20.00     0.037 A 
HETATM    2  C2  UNL     1     -42.748   5.867  -2.320  1.00 20.00     0.037 A 
HETATM    3  C3  UNL     1     -41.543   3.354  -2.445  1.00 20.00     0.021 A 
HETATM    4  C4  UNL     1     -43.265   4.887  -3.168  1.00 20.00     0.021 A 
HETATM    5  C5  UNL     1     -41.628   5.591  -1.536  1.00 20.00     0.102 A 
HETATM    6  C6  UNL     1     -42.663   3.630  -3.230  1.00 20.00    -0.000 A 
ENDROOT
BRANCH   5   7
HETATM    7  N8  UNL     1     -41.101   6.588  -0.674  1.00 20.00    -0.116 N 
HETATM    8  O9  UNL     1     -41.347   7.794  -0.916  1.00 20.00    -0.532 OA
HETATM    9  O10 UNL     1     -40.401   6.236   0.307  1.00 20.00    -0.532 OA
ENDBRANCH   5   7
BRANCH   6  10
HETATM   10  S11 UNL     1     -43.323   2.378  -4.311  1.00 20.00    -0.134 SA
HETATM   11  C7  UNL     1     -41.951   1.205  -4.290  1.00 20.00     0.095 C 
ENDBRANCH   6  10
TORSDOF 2
ENDMDL
MODEL 9
REMARK VINA RESULT:      -3.8      3.244      3.589
REMARK  2 active torsions:
REMARK  status: ('A' for Active; 'I' for Inactive)
REMARK    1  A    between atoms: C5_5  and  N8_8 
REMARK    2  A    between atoms: C6_6  and  S11_11 
ROOT
HETATM    1  C1  UNL     1     -35.639  13.946  -4.193  1.00 20.00     0.037 A 
HETATM    2  C2  UNL     1     -34.759  15.849  -2.994  1.00 20.00     0.037 A 
HETATM    3  C3  UNL     1     -36.922  14.486  -4.109  1.00 20.00     0.021 A 
HETATM    4  C4  UNL     1     -36.042  16.390  -2.910  1.00 20.00     0.021 A 
HETATM    5  C5  UNL     1     -34.557  14.628  -3.635  1.00 20.00     0.102 A 
HETATM    6  C6  UNL     1     -37.125  15.708  -3.468  1.00 20.00    -0.000 A 
ENDROOT
BRANCH   5   7
HETATM    7  N8  UNL     1     -33.251  14.078  -3.722  1.00 20.00    -0.116 N 
HETATM    8  O9  UNL     1     -33.121  12.852  -3.953  1.00 20.00    -0.532 OA
HETATM    9  O10 UNL     1     -32.261  14.834  -3.564  1.00 20.00    -0.532 OA
ENDBRANCH   5   7
BRANCH   6  10
HETATM   10  S11 UNL     1     -38.763  16.397  -3.360  1.00 20.00    -0.134 SA
HETATM   11  C7  UNL     1     -38.401  17.894  -2.416  1.00 20.00     0.095 C 
ENDBRANCH   6  10
TORSDOF 2
ENDMDL
