MODEL 1
REMARK VINA RESULT:      -5.1      0.000      0.000
REMARK  1 active torsions:
REMARK  status: ('A' for Active; 'I' for Inactive)
REMARK    1  A    between atoms: C6_6  and  C9_9 
ROOT
HETATM    1  C1  UNL     1     -35.114   4.648   4.535  1.00 20.00     0.007 A 
HETATM    2  C2  UNL     1     -34.035   6.037   6.192  1.00 20.00     0.007 A 
HETATM    3  C3  UNL     1     -34.456   5.347   3.522  1.00 20.00     0.007 A 
HETATM    4  C4  UNL     1     -33.377   6.735   5.180  1.00 20.00     0.007 A 
HETATM    5  C5  UNL     1     -34.902   4.993   5.870  1.00 20.00    -0.062 A 
HETATM    6  C6  UNL     1     -33.588   6.390   3.845  1.00 20.00    -0.059 A 
HETATM    7  C7  UNL     1     -35.605   4.248   6.953  1.00 20.00     0.048 C 
ENDROOT
BRANCH   6   8
HETATM    8  C9  UNL     1     -32.884   7.135   2.761  1.00 20.00     0.034 C 
HETATM    9  C8  UNL     1     -31.513   7.639   3.199  1.00 20.00     0.010 C 
ENDBRANCH   6   8
TORSDOF 1
ENDMDL
MODEL 2
REMARK VINA RESULT:      -5.1      0.016      1.611
REMARK  1 active torsions:
REMARK  status: ('A' for Active; 'I' for Inactive)
REMARK    1  A    between atoms: C6_6  and  C9_9 
ROOT
HETATM    1  C1  UNL     1     -34.023   6.051   6.192  1.00 20.00     0.007 A 
HETATM    2  C2  UNL     1     -35.115   4.663   4.542  1.00 20.00     0.007 A 
HETATM    3  C3  UNL     1     -33.367   6.745   5.173  1.00 20.00     0.007 A 
HETATM    4  C4  UNL     1     -34.460   5.357   3.525  1.00 20.00     0.007 A 
HETATM    5  C5  UNL     1     -34.897   5.011   5.875  1.00 20.00    -0.062 A 
HETATM    6  C6  UNL     1     -33.586   6.397   3.840  1.00 20.00    -0.059 A 
HETATM    7  C7  UNL     1     -35.598   4.269   6.962  1.00 20.00     0.048 C 
ENDROOT
BRANCH   6   8
HETATM    8  C9  UNL     1     -32.886   7.141   2.753  1.00 20.00     0.034 C 
HETATM    9  C8  UNL     1     -31.513   7.648   3.186  1.00 20.00     0.010 C 
ENDBRANCH   6   8
TORSDOF 1
ENDMDL
MODEL 3
REMARK VINA RESULT:      -5.0      0.969      1.079
REMARK  1 active torsions:
REMARK  status: ('A' for Active; 'I' for Inactive)
REMARK    1  A    between atoms: C6_6  and  C9_9 
ROOT
HETATM    1  C1  UNL     1     -34.544   4.982   3.819  1.00 20.00     0.007 A 
HETATM    2  C2  UNL     1     -33.604   6.375   5.556  1.00 20.00     0.007 A 
HETATM    3  C3  UNL     1     -33.772   5.650   2.867  1.00 20.00     0.007 A 
HETATM    4  C4  UNL     1     -32.832   7.041   4.605  1.00 20.00     0.007 A 
HETATM    5  C5  UNL     1     -34.459   5.345   5.164  1.00 20.00    -0.062 A 
HETATM    6  C6  UNL     1     -32.917   6.679   3.260  1.00 20.00    -0.059 A 
HETATM    7  C7  UNL     1     -35.284   4.633   6.181  1.00 20.00     0.048 C 
ENDROOT
BRANCH   6   8
HETATM    8  C9  UNL     1     -32.090   7.389   2.242  1.00 20.00     0.034 C 
HETATM    9  C8  UNL     1     -32.476   8.859   2.103  1.00 20.00     0.010 C 
ENDBRANCH   6   8
TORSDOF 1
ENDMDL
MODEL 4
REMARK VINA RESULT:      -4.5      0.837      4.242
REMARK  1 active torsions:
REMARK  status: ('A' for Active; 'I' for Inactive)
REMARK    1  A    between atoms: C6_6  and  C9_9 
ROOT
HETATM    1  C1  UNL     1     -32.856   7.083   4.411  1.00 20.00     0.007 A 
HETATM    2  C2  UNL     1     -33.420   5.999   2.326  1.00 20.00     0.007 A 
HETATM    3  C3  UNL     1     -33.715   6.219   5.092  1.00 20.00     0.007 A 
HETATM    4  C4  UNL     1     -34.278   5.136   3.007  1.00 20.00     0.007 A 
HETATM    5  C5  UNL     1     -32.708   6.972   3.028  1.00 20.00    -0.062 A 
HETATM    6  C6  UNL     1     -34.425   5.246   4.390  1.00 20.00    -0.059 A 
HETATM    7  C7  UNL     1     -31.791   7.895   2.299  1.00 20.00     0.048 C 
ENDROOT
BRANCH   6   8
HETATM    8  C9  UNL     1     -35.341   4.322   5.119  1.00 20.00     0.034 C 
HETATM    9  C8  UNL     1     -35.172   4.412   6.633  1.00 20.00     0.010 C 
ENDBRANCH   6   8
TORSDOF 1
ENDMDL
MODEL 5
REMARK VINA RESULT:      -4.5      0.841      3.945
REMARK  1 active torsions:
REMARK  status: ('A' for Active; 'I' for Inactive)
REMARK    1  A    between atoms: C6_6  and  C9_9 
ROOT
HETATM    1  C1  UNL     1     -33.407   5.993   2.301  1.00 20.00     0.007 A 
HETATM    2  C2  UNL     1     -32.862   7.109   4.374  1.00 20.00     0.007 A 
HETATM    3  C3  UNL     1     -34.260   5.129   2.991  1.00 20.00     0.007 A 
HETATM    4  C4  UNL     1     -33.715   6.247   5.062  1.00 20.00     0.007 A 
HETATM    5  C5  UNL     1     -32.709   6.983   2.993  1.00 20.00    -0.062 A 
HETATM    6  C6  UNL     1     -34.413   5.256   4.371  1.00 20.00    -0.059 A 
HETATM    7  C7  UNL     1     -31.798   7.906   2.257  1.00 20.00     0.048 C 
ENDROOT
BRANCH   6   8
HETATM    8  C9  UNL     1     -35.326   4.334   5.106  1.00 20.00     0.034 C 
HETATM    9  C8  UNL     1     -35.168   4.444   6.620  1.00 20.00     0.010 C 
ENDBRANCH   6   8
TORSDOF 1
ENDMDL
MODEL 6
REMARK VINA RESULT:      -4.2      9.561     11.029
REMARK  1 active torsions:
REMARK  status: ('A' for Active; 'I' for Inactive)
REMARK    1  A    between atoms: C6_6  and  C9_9 
ROOT
HETATM    1  C1  UNL     1     -40.817   5.162  -1.074  1.00 20.00     0.007 A 
HETATM    2  C2  UNL     1     -42.541   6.118  -2.472  1.00 20.00     0.007 A 
HETATM    3  C3  UNL     1     -41.088   3.900  -1.605  1.00 20.00     0.007 A 
HETATM    4  C4  UNL     1     -42.810   4.857  -3.003  1.00 20.00     0.007 A 
HETATM    5  C5  UNL     1     -41.544   6.271  -1.508  1.00 20.00    -0.062 A 
HETATM    6  C6  UNL     1     -42.084   3.748  -2.569  1.00 20.00    -0.059 A 
HETATM    7  C7  UNL     1     -41.257   7.620  -0.942  1.00 20.00     0.048 C 
ENDROOT
BRANCH   6   8
HETATM    8  C9  UNL     1     -42.370   2.399  -3.137  1.00 20.00     0.034 C 
HETATM    9  C8  UNL     1     -41.186   1.834  -3.917  1.00 20.00     0.010 C 
ENDBRANCH   6   8
TORSDOF 1
ENDMDL
MODEL 7
REMARK VINA RESULT:      -4.2     12.237     13.605
REMARK  1 active torsions:
REMARK  status: ('A' for Active; 'I' for Inactive)
REMARK    1  A    between atoms: C6_6  and  C9_9 
ROOT
HETATM    1  C1  UNL     1     -33.548  16.329  -5.035  1.00 20.00     0.007 A 
HETATM    2  C2  UNL     1     -35.309  14.700  -4.740  1.00 20.00     0.007 A 
HETATM    3  C3  UNL     1     -33.611  16.642  -3.677  1.00 20.00     0.007 A 
HETATM    4  C4  UNL     1     -35.371  15.013  -3.382  1.00 20.00     0.007 A 
HETATM    5  C5  UNL     1     -34.397  15.357  -5.566  1.00 20.00    -0.062 A 
HETATM    6  C6  UNL     1     -34.522  15.985  -2.851  1.00 20.00    -0.059 A 
HETATM    7  C7  UNL     1     -34.331  15.021  -7.017  1.00 20.00     0.048 C 
ENDROOT
BRANCH   6   8
HETATM    8  C9  UNL     1     -34.586  16.319  -1.399  1.00 20.00     0.034 C 
HETATM    9  C8  UNL     1     -33.676  17.487  -1.031  1.00 20.00     0.010 C 
ENDBRANCH   6   8
TORSDOF 1
ENDMDL
MODEL 8
REMARK VINA RESULT:      -4.2     12.222     13.575
REMARK  1 active torsions:
REMARK  status: ('A' for Active; 'I' for Inactive)
REMARK    1  A    between atoms: C6_6  and  C9_9 
ROOT
HETATM    1  C1  UNL     1     -35.190  14.619  -4.796  1.00 20.00     0.007 A 
HETATM    2  C2  UNL     1     -33.583  16.396  -5.110  1.00 20.00     0.007 A 
HETATM    3  C3  UNL     1     -35.255  14.920  -3.434  1.00 20.00     0.007 A 
HETATM    4  C4  UNL     1     -33.648  16.696  -3.750  1.00 20.00     0.007 A 
HETATM    5  C5  UNL     1     -34.354  15.359  -5.633  1.00 20.00    -0.062 A 
HETATM    6  C6  UNL     1     -34.484  15.958  -2.912  1.00 20.00    -0.059 A 
HETATM    7  C7  UNL     1     -34.284  15.038  -7.088  1.00 20.00     0.048 C 
ENDROOT
BRANCH   6   8
HETATM    8  C9  UNL     1     -34.557  16.279  -1.458  1.00 20.00     0.034 C 
HETATM    9  C8  UNL     1     -33.673  17.464  -1.079  1.00 20.00     0.010 C 
ENDBRANCH   6   8
TORSDOF 1
ENDMDL
MODEL 9
REMARK VINA RESULT:      -4.2     12.276     12.954
REMARK  1 active torsions:
REMARK  status: ('A' for Active; 'I' for Inactive)
REMARK    1  A    between atoms: C6_6  and  C9_9 
ROOT
HETATM    1  C1  UNL     1     -35.897  15.560  -2.727  1.00 20.00     0.007 A 
HETATM    2  C2  UNL     1     -33.504  15.780  -2.983  1.00 20.00     0.007 A 
HETATM    3  C3  UNL     1     -35.974  14.944  -3.977  1.00 20.00     0.007 A 
HETATM    4  C4  UNL     1     -33.581  15.165  -4.232  1.00 20.00     0.007 A 
HETATM    5  C5  UNL     1     -34.662  15.977  -2.230  1.00 20.00    -0.062 A 
HETATM    6  C6  UNL     1     -34.816  14.747  -4.729  1.00 20.00    -0.059 A 
HETATM    7  C7  UNL     1     -34.579  16.635  -0.895  1.00 20.00     0.048 C 
ENDROOT
BRANCH   6   8
HETATM    8  C9  UNL     1     -34.899  14.087  -6.064  1.00 20.00     0.034 C 
HETATM    9  C8  UNL     1     -34.419  14.994  -7.192  1.00 20.00     0.010 C 
ENDBRANCH   6   8
TORSDOF 1
ENDMDL
