MODEL 1
REMARK VINA RESULT:      -4.3      0.000      0.000
REMARK  0 active torsions:
REMARK  status: ('A' for Active; 'I' for Inactive)
ROOT
HETATM    1  C1  UNL     1     -33.942   6.133   6.123  1.00 20.00     0.008 A 
HETATM    2  C2  UNL     1     -34.872   4.828   4.316  1.00 20.00     0.008 A 
HETATM    3  C3  UNL     1     -33.222   6.895   5.203  1.00 20.00     0.019 A 
HETATM    4  C4  UNL     1     -34.151   5.588   3.395  1.00 20.00     0.019 A 
HETATM    5  C5  UNL     1     -34.768   5.100   5.680  1.00 20.00    -0.062 A 
HETATM    6  C6  UNL     1     -33.326   6.622   3.839  1.00 20.00     0.006 A 
HETATM    7  C7  UNL     1     -35.536   4.285   6.663  1.00 20.00     0.048 C 
HETATM    8  I8  UNL     1     -32.250   7.754   2.469  1.00 20.00    -0.045 I 
ENDROOT
TORSDOF 0
ENDMDL
MODEL 2
REMARK VINA RESULT:      -3.9      9.964     10.876
REMARK  0 active torsions:
REMARK  status: ('A' for Active; 'I' for Inactive)
ROOT
HETATM    1  C1  UNL     1     -40.875   5.236  -1.104  1.00 20.00     0.008 A 
HETATM    2  C2  UNL     1     -42.631   6.115  -2.511  1.00 20.00     0.008 A 
HETATM    3  C3  UNL     1     -41.064   3.971  -1.660  1.00 20.00     0.019 A 
HETATM    4  C4  UNL     1     -42.821   4.850  -3.066  1.00 20.00     0.019 A 
HETATM    5  C5  UNL     1     -41.659   6.309  -1.530  1.00 20.00    -0.062 A 
HETATM    6  C6  UNL     1     -42.037   3.778  -2.640  1.00 20.00     0.006 A 
HETATM    7  C7  UNL     1     -41.459   7.661  -0.935  1.00 20.00     0.048 C 
HETATM    8  I8  UNL     1     -42.320   1.892  -3.465  1.00 20.00    -0.045 I 
ENDROOT
TORSDOF 0
ENDMDL
MODEL 3
REMARK VINA RESULT:      -3.8     12.474     13.194
REMARK  0 active torsions:
REMARK  status: ('A' for Active; 'I' for Inactive)
ROOT
HETATM    1  C1  UNL     1     -33.487  15.966  -2.892  1.00 20.00     0.008 A 
HETATM    2  C2  UNL     1     -35.894  16.169  -2.898  1.00 20.00     0.008 A 
HETATM    3  C3  UNL     1     -33.512  15.628  -4.245  1.00 20.00     0.019 A 
HETATM    4  C4  UNL     1     -35.920  15.830  -4.250  1.00 20.00     0.019 A 
HETATM    5  C5  UNL     1     -34.678  16.237  -2.218  1.00 20.00    -0.062 A 
HETATM    6  C6  UNL     1     -34.729  15.559  -4.924  1.00 20.00     0.006 A 
HETATM    7  C7  UNL     1     -34.652  16.597  -0.772  1.00 20.00     0.048 C 
HETATM    8  I8  UNL     1     -34.765  15.051  -6.938  1.00 20.00    -0.045 I 
ENDROOT
TORSDOF 0
ENDMDL
MODEL 4
REMARK VINA RESULT:      -3.8     12.500     13.248
REMARK  0 active torsions:
REMARK  status: ('A' for Active; 'I' for Inactive)
ROOT
HETATM    1  C1  UNL     1     -35.878  16.204  -2.874  1.00 20.00     0.008 A 
HETATM    2  C2  UNL     1     -33.470  16.006  -2.875  1.00 20.00     0.008 A 
HETATM    3  C3  UNL     1     -35.907  15.863  -4.226  1.00 20.00     0.019 A 
HETATM    4  C4  UNL     1     -33.499  15.667  -4.227  1.00 20.00     0.019 A 
HETATM    5  C5  UNL     1     -34.660  16.275  -2.198  1.00 20.00    -0.062 A 
HETATM    6  C6  UNL     1     -34.717  15.595  -4.903  1.00 20.00     0.006 A 
HETATM    7  C7  UNL     1     -34.629  16.641  -0.753  1.00 20.00     0.048 C 
HETATM    8  I8  UNL     1     -34.760  15.091  -6.918  1.00 20.00    -0.045 I 
ENDROOT
TORSDOF 0
ENDMDL
MODEL 5
REMARK VINA RESULT:      -3.7     12.672     13.897
REMARK  0 active torsions:
REMARK  status: ('A' for Active; 'I' for Inactive)
ROOT
HETATM    1  C1  UNL     1     -33.645  16.487  -5.419  1.00 20.00     0.008 A 
HETATM    2  C2  UNL     1     -35.246  14.767  -4.859  1.00 20.00     0.008 A 
HETATM    3  C3  UNL     1     -33.659  16.931  -4.097  1.00 20.00     0.019 A 
HETATM    4  C4  UNL     1     -35.261  15.211  -3.537  1.00 20.00     0.019 A 
HETATM    5  C5  UNL     1     -34.438  15.404  -5.800  1.00 20.00    -0.062 A 
HETATM    6  C6  UNL     1     -34.468  16.293  -3.156  1.00 20.00     0.006 A 
HETATM    7  C7  UNL     1     -34.424  14.931  -7.213  1.00 20.00     0.048 C 
HETATM    8  I8  UNL     1     -34.491  16.957  -1.188  1.00 20.00    -0.045 I 
ENDROOT
TORSDOF 0
ENDMDL
MODEL 6
REMARK VINA RESULT:      -3.6     12.384     13.417
REMARK  0 active torsions:
REMARK  status: ('A' for Active; 'I' for Inactive)
ROOT
HETATM    1  C1  UNL     1     -34.661  16.627  -0.622  1.00 20.00     0.008 A 
HETATM    2  C2  UNL     1     -33.700  18.809  -1.008  1.00 20.00     0.008 A 
HETATM    3  C3  UNL     1     -34.504  16.318  -1.973  1.00 20.00     0.019 A 
HETATM    4  C4  UNL     1     -33.544  18.502  -2.360  1.00 20.00     0.019 A 
HETATM    5  C5  UNL     1     -34.258  17.872  -0.139  1.00 20.00    -0.062 A 
HETATM    6  C6  UNL     1     -33.946  17.256  -2.842  1.00 20.00     0.006 A 
HETATM    7  C7  UNL     1     -34.428  18.203   1.304  1.00 20.00     0.048 C 
HETATM    8  I8  UNL     1     -33.716  16.797  -4.855  1.00 20.00    -0.045 I 
ENDROOT
TORSDOF 0
ENDMDL
MODEL 7
REMARK VINA RESULT:      -3.6     12.618     13.940
REMARK  0 active torsions:
REMARK  status: ('A' for Active; 'I' for Inactive)
ROOT
HETATM    1  C1  UNL     1     -35.127  14.748  -4.796  1.00 20.00     0.008 A 
HETATM    2  C2  UNL     1     -33.672  16.588  -5.374  1.00 20.00     0.008 A 
HETATM    3  C3  UNL     1     -35.165  15.193  -3.475  1.00 20.00     0.019 A 
HETATM    4  C4  UNL     1     -33.709  17.032  -4.052  1.00 20.00     0.019 A 
HETATM    5  C5  UNL     1     -34.381  15.446  -5.746  1.00 20.00    -0.062 A 
HETATM    6  C6  UNL     1     -34.456  16.335  -3.103  1.00 20.00     0.006 A 
HETATM    7  C7  UNL     1     -34.339  14.970  -7.158  1.00 20.00     0.048 C 
HETATM    8  I8  UNL     1     -34.510  16.994  -1.134  1.00 20.00    -0.045 I 
ENDROOT
TORSDOF 0
ENDMDL
MODEL 8
REMARK VINA RESULT:      -3.6     12.597     12.841
REMARK  0 active torsions:
REMARK  status: ('A' for Active; 'I' for Inactive)
ROOT
HETATM    1  C1  UNL     1     -35.966  14.915  -3.851  1.00 20.00     0.008 A 
HETATM    2  C2  UNL     1     -33.556  14.990  -4.003  1.00 20.00     0.008 A 
HETATM    3  C3  UNL     1     -35.921  15.736  -2.724  1.00 20.00     0.019 A 
HETATM    4  C4  UNL     1     -33.510  15.810  -2.875  1.00 20.00     0.019 A 
HETATM    5  C5  UNL     1     -34.784  14.542  -4.491  1.00 20.00    -0.062 A 
HETATM    6  C6  UNL     1     -34.693  16.183  -2.236  1.00 20.00     0.006 A 
HETATM    7  C7  UNL     1     -34.832  13.664  -5.694  1.00 20.00     0.048 C 
HETATM    8  I8  UNL     1     -34.626  17.402  -0.555  1.00 20.00    -0.045 I 
ENDROOT
TORSDOF 0
ENDMDL
MODEL 9
REMARK VINA RESULT:      -3.5     12.345     13.081
REMARK  0 active torsions:
REMARK  status: ('A' for Active; 'I' for Inactive)
ROOT
HETATM    1  C1  UNL     1     -34.842  17.701   1.197  1.00 20.00     0.008 A 
HETATM    2  C2  UNL     1     -32.815  18.789   0.459  1.00 20.00     0.008 A 
HETATM    3  C3  UNL     1     -34.942  17.053  -0.034  1.00 20.00     0.019 A 
HETATM    4  C4  UNL     1     -32.916  18.142  -0.772  1.00 20.00     0.019 A 
HETATM    5  C5  UNL     1     -33.778  18.569   1.444  1.00 20.00    -0.062 A 
HETATM    6  C6  UNL     1     -33.979  17.274  -1.019  1.00 20.00     0.006 A 
HETATM    7  C7  UNL     1     -33.671  19.263   2.759  1.00 20.00     0.048 C 
HETATM    8  I8  UNL     1     -34.132  16.311  -2.853  1.00 20.00    -0.045 I 
ENDROOT
TORSDOF 0
ENDMDL
