MODEL 1
REMARK VINA RESULT:      -5.3      0.000      0.000
REMARK  3 active torsions:
REMARK  status: ('A' for Active; 'I' for Inactive)
REMARK    1  A    between atoms: C2_2  and  C7_7 
REMARK    2  A    between atoms: C3_3  and  C8_8 
REMARK    3  A    between atoms: C7_7  and  C8_8 
ROOT
HETATM    1  C3  UNL     1     -34.449   5.296   4.199  1.00 20.00    -0.024 C 
HETATM    2  C4  UNL     1     -34.525   5.382   5.541  1.00 20.00    -0.091 C 
HETATM    3  C5  UNL     1     -35.163   4.276   6.340  1.00 20.00     0.042 C 
HETATM    4  C6  UNL     1     -34.002   6.521   6.369  1.00 20.00     0.042 C 
ENDROOT
BRANCH   1   5
HETATM    5  C8  UNL     1     -33.875   6.301   3.238  1.00 20.00     0.031 C 
BRANCH   5   6
HETATM    6  C7  UNL     1     -32.345   6.255   3.185  1.00 20.00     0.030 C 
BRANCH   6   7
HETATM    7  C2  UNL     1     -31.735   7.600   2.912  1.00 20.00    -0.037 C 
HETATM    8  C1  UNL     1     -32.072   8.379   1.878  1.00 20.00     0.007 C 
ENDBRANCH   6   7
ENDBRANCH   5   6
ENDBRANCH   1   5
TORSDOF 3
ENDMDL
MODEL 2
REMARK VINA RESULT:      -5.2      0.919      1.682
REMARK  3 active torsions:
REMARK  status: ('A' for Active; 'I' for Inactive)
REMARK    1  A    between atoms: C2_2  and  C7_7 
REMARK    2  A    between atoms: C3_3  and  C8_8 
REMARK    3  A    between atoms: C7_7  and  C8_8 
ROOT
HETATM    1  C3  UNL     1     -33.240   6.371   4.527  1.00 20.00    -0.024 C 
HETATM    2  C4  UNL     1     -34.301   5.685   4.992  1.00 20.00    -0.091 C 
HETATM    3  C5  UNL     1     -34.558   5.592   6.473  1.00 20.00     0.042 C 
HETATM    4  C6  UNL     1     -35.315   4.974   4.141  1.00 20.00     0.042 C 
ENDROOT
BRANCH   1   5
HETATM    5  C8  UNL     1     -32.810   6.555   3.097  1.00 20.00     0.031 C 
BRANCH   5   6
HETATM    6  C7  UNL     1     -31.845   7.731   2.919  1.00 20.00     0.030 C 
BRANCH   6   7
HETATM    7  C2  UNL     1     -32.034   8.443   1.610  1.00 20.00    -0.037 C 
HETATM    8  C1  UNL     1     -32.471   9.702   1.499  1.00 20.00     0.007 C 
ENDBRANCH   6   7
ENDBRANCH   5   6
ENDBRANCH   1   5
TORSDOF 3
ENDMDL
MODEL 3
REMARK VINA RESULT:      -4.8      0.886      4.346
REMARK  3 active torsions:
REMARK  status: ('A' for Active; 'I' for Inactive)
REMARK    1  A    between atoms: C2_2  and  C7_7 
REMARK    2  A    between atoms: C3_3  and  C8_8 
REMARK    3  A    between atoms: C7_7  and  C8_8 
ROOT
HETATM    1  C3  UNL     1     -32.803   6.255   3.620  1.00 20.00    -0.024 C 
HETATM    2  C4  UNL     1     -32.058   7.316   3.256  1.00 20.00    -0.091 C 
HETATM    3  C5  UNL     1     -30.980   7.838   4.169  1.00 20.00     0.042 C 
HETATM    4  C6  UNL     1     -32.190   8.065   1.960  1.00 20.00     0.042 C 
ENDROOT
BRANCH   1   5
HETATM    5  C8  UNL     1     -33.930   5.610   2.859  1.00 20.00     0.031 C 
BRANCH   5   6
HETATM    6  C7  UNL     1     -35.164   5.364   3.733  1.00 20.00     0.030 C 
BRANCH   6   7
HETATM    7  C2  UNL     1     -34.830   5.276   5.195  1.00 20.00    -0.037 C 
HETATM    8  C1  UNL     1     -34.905   4.150   5.913  1.00 20.00     0.007 C 
ENDBRANCH   6   7
ENDBRANCH   5   6
ENDBRANCH   1   5
TORSDOF 3
ENDMDL
MODEL 4
REMARK VINA RESULT:      -4.7      1.056      4.620
REMARK  3 active torsions:
REMARK  status: ('A' for Active; 'I' for Inactive)
REMARK    1  A    between atoms: C2_2  and  C7_7 
REMARK    2  A    between atoms: C3_3  and  C8_8 
REMARK    3  A    between atoms: C7_7  and  C8_8 
ROOT
HETATM    1  C3  UNL     1     -33.125   6.764   2.821  1.00 20.00    -0.024 C 
HETATM    2  C4  UNL     1     -32.108   7.643   2.747  1.00 20.00    -0.091 C 
HETATM    3  C5  UNL     1     -31.878   8.437   1.488  1.00 20.00     0.042 C 
HETATM    4  C6  UNL     1     -31.134   7.939   3.852  1.00 20.00     0.042 C 
ENDROOT
BRANCH   1   5
HETATM    5  C8  UNL     1     -33.496   5.872   3.974  1.00 20.00     0.031 C 
BRANCH   5   6
HETATM    6  C7  UNL     1     -34.921   5.321   3.856  1.00 20.00     0.030 C 
BRANCH   6   7
HETATM    7  C2  UNL     1     -35.258   4.351   4.952  1.00 20.00    -0.037 C 
HETATM    8  C1  UNL     1     -34.933   4.532   6.237  1.00 20.00     0.007 C 
ENDBRANCH   6   7
ENDBRANCH   5   6
ENDBRANCH   1   5
TORSDOF 3
ENDMDL
MODEL 5
REMARK VINA RESULT:      -4.4      0.767      4.032
REMARK  3 active torsions:
REMARK  status: ('A' for Active; 'I' for Inactive)
REMARK    1  A    between atoms: C2_2  and  C7_7 
REMARK    2  A    between atoms: C3_3  and  C8_8 
REMARK    3  A    between atoms: C7_7  and  C8_8 
ROOT
HETATM    1  C3  UNL     1     -34.173   6.543   3.513  1.00 20.00    -0.024 C 
HETATM    2  C4  UNL     1     -32.896   6.532   3.088  1.00 20.00    -0.091 C 
HETATM    3  C5  UNL     1     -32.225   7.810   2.657  1.00 20.00     0.042 C 
HETATM    4  C6  UNL     1     -32.020   5.314   3.003  1.00 20.00     0.042 C 
ENDROOT
BRANCH   1   5
HETATM    5  C8  UNL     1     -35.012   5.376   3.958  1.00 20.00     0.031 C 
BRANCH   5   6
HETATM    6  C7  UNL     1     -34.516   4.762   5.270  1.00 20.00     0.030 C 
BRANCH   6   7
HETATM    7  C2  UNL     1     -34.627   5.709   6.431  1.00 20.00    -0.037 C 
HETATM    8  C1  UNL     1     -33.806   6.745   6.632  1.00 20.00     0.007 C 
ENDBRANCH   6   7
ENDBRANCH   5   6
ENDBRANCH   1   5
TORSDOF 3
ENDMDL
MODEL 6
REMARK VINA RESULT:      -4.3      0.992      4.905
REMARK  3 active torsions:
REMARK  status: ('A' for Active; 'I' for Inactive)
REMARK    1  A    between atoms: C2_2  and  C7_7 
REMARK    2  A    between atoms: C3_3  and  C8_8 
REMARK    3  A    between atoms: C7_7  and  C8_8 
ROOT
HETATM    1  C3  UNL     1     -32.202   7.256   2.492  1.00 20.00    -0.024 C 
HETATM    2  C4  UNL     1     -32.195   8.421   1.816  1.00 20.00    -0.091 C 
HETATM    3  C5  UNL     1     -31.546   8.511   0.460  1.00 20.00     0.042 C 
HETATM    4  C6  UNL     1     -32.810   9.706   2.296  1.00 20.00     0.042 C 
ENDROOT
BRANCH   1   5
HETATM    5  C8  UNL     1     -32.775   6.979   3.855  1.00 20.00     0.031 C 
BRANCH   5   6
HETATM    6  C7  UNL     1     -33.925   5.968   3.816  1.00 20.00     0.030 C 
BRANCH   6   7
HETATM    7  C2  UNL     1     -34.433   5.616   5.184  1.00 20.00    -0.037 C 
HETATM    8  C1  UNL     1     -34.878   4.403   5.528  1.00 20.00     0.007 C 
ENDBRANCH   6   7
ENDBRANCH   5   6
ENDBRANCH   1   5
TORSDOF 3
ENDMDL
MODEL 7
REMARK VINA RESULT:      -4.1      0.826      4.478
REMARK  3 active torsions:
REMARK  status: ('A' for Active; 'I' for Inactive)
REMARK    1  A    between atoms: C2_2  and  C7_7 
REMARK    2  A    between atoms: C3_3  and  C8_8 
REMARK    3  A    between atoms: C7_7  and  C8_8 
ROOT
HETATM    1  C3  UNL     1     -33.843   7.229   3.486  1.00 20.00    -0.024 C 
HETATM    2  C4  UNL     1     -32.636   7.043   2.919  1.00 20.00    -0.091 C 
HETATM    3  C5  UNL     1     -31.993   8.144   2.118  1.00 20.00     0.042 C 
HETATM    4  C6  UNL     1     -31.816   5.787   3.016  1.00 20.00     0.042 C 
ENDROOT
BRANCH   1   5
HETATM    5  C8  UNL     1     -34.647   6.248   4.295  1.00 20.00     0.031 C 
BRANCH   5   6
HETATM    6  C7  UNL     1     -34.236   6.225   5.771  1.00 20.00     0.030 C 
BRANCH   6   7
HETATM    7  C2  UNL     1     -34.466   4.888   6.415  1.00 20.00    -0.037 C 
HETATM    8  C1  UNL     1     -34.930   3.815   5.766  1.00 20.00     0.007 C 
ENDBRANCH   6   7
ENDBRANCH   5   6
ENDBRANCH   1   5
TORSDOF 3
ENDMDL
MODEL 8
REMARK VINA RESULT:      -4.0     11.272     11.924
REMARK  3 active torsions:
REMARK  status: ('A' for Active; 'I' for Inactive)
REMARK    1  A    between atoms: C2_2  and  C7_7 
REMARK    2  A    between atoms: C3_3  and  C8_8 
REMARK    3  A    between atoms: C7_7  and  C8_8 
ROOT
HETATM    1  C3  UNL     1     -34.722  16.473  -1.037  1.00 20.00    -0.024 C 
HETATM    2  C4  UNL     1     -34.349  17.431  -0.168  1.00 20.00    -0.091 C 
HETATM    3  C5  UNL     1     -35.147  17.676   1.085  1.00 20.00     0.042 C 
HETATM    4  C6  UNL     1     -33.149  18.323  -0.322  1.00 20.00     0.042 C 
ENDROOT
BRANCH   1   5
HETATM    5  C8  UNL     1     -34.071  16.100  -2.341  1.00 20.00     0.031 C 
BRANCH   5   6
HETATM    6  C7  UNL     1     -34.919  15.128  -3.165  1.00 20.00     0.030 C 
BRANCH   6   7
HETATM    7  C2  UNL     1     -34.127  13.959  -3.677  1.00 20.00    -0.037 C 
HETATM    8  C1  UNL     1     -34.482  13.218  -4.732  1.00 20.00     0.007 C 
ENDBRANCH   6   7
ENDBRANCH   5   6
ENDBRANCH   1   5
TORSDOF 3
ENDMDL
MODEL 9
REMARK VINA RESULT:      -3.9     11.260     12.042
REMARK  3 active torsions:
REMARK  status: ('A' for Active; 'I' for Inactive)
REMARK    1  A    between atoms: C2_2  and  C7_7 
REMARK    2  A    between atoms: C3_3  and  C8_8 
REMARK    3  A    between atoms: C7_7  and  C8_8 
ROOT
HETATM    1  C3  UNL     1     -33.510  15.880  -2.601  1.00 20.00    -0.024 C 
HETATM    2  C4  UNL     1     -34.694  16.242  -2.072  1.00 20.00    -0.091 C 
HETATM    3  C5  UNL     1     -34.758  16.867  -0.703  1.00 20.00     0.042 C 
HETATM    4  C6  UNL     1     -36.029  16.089  -2.745  1.00 20.00     0.042 C 
ENDROOT
BRANCH   1   5
HETATM    5  C8  UNL     1     -33.251  15.227  -3.932  1.00 20.00     0.031 C 
BRANCH   5   6
HETATM    6  C7  UNL     1     -33.470  13.712  -3.895  1.00 20.00     0.030 C 
BRANCH   6   7
HETATM    7  C2  UNL     1     -34.567  13.263  -4.817  1.00 20.00    -0.037 C 
HETATM    8  C1  UNL     1     -35.086  14.022  -5.788  1.00 20.00     0.007 C 
ENDBRANCH   6   7
ENDBRANCH   5   6
ENDBRANCH   1   5
TORSDOF 3
ENDMDL
