MODEL 1
REMARK VINA RESULT:      -4.2      0.000      0.000
REMARK  4 active torsions:
REMARK  status: ('A' for Active; 'I' for Inactive)
REMARK    1  A    between atoms: C2_2  and  C4_4 
REMARK    2  A    between atoms: C4_4  and  O7_7 
REMARK    3  A    between atoms: C5_5  and  C6_6 
REMARK    4  A    between atoms: C6_6  and  O7_7 
ROOT
HETATM    1  O7  UNL     1     -33.819   6.422   4.011  1.00 20.00    -0.388 OA
ENDROOT
BRANCH   1   2
HETATM    2  C4  UNL     1     -32.678   6.179   3.200  1.00 20.00     0.194 C 
BRANCH   2   3
HETATM    3  C2  UNL     1     -31.932   7.459   3.024  1.00 20.00    -0.011 C 
HETATM    4  C1  UNL     1     -32.060   8.258   1.958  1.00 20.00     0.009 C 
ENDBRANCH   2   3
ENDBRANCH   1   2
BRANCH   1   5
HETATM    5  C6  UNL     1     -34.843   5.465   3.773  1.00 20.00     0.167 C 
BRANCH   5   6
HETATM    6  C5  UNL     1     -35.068   4.659   5.042  1.00 20.00     0.022 C 
HETATM    7  C3  UNL     1     -34.602   5.408   6.277  1.00 20.00     0.007 C 
ENDBRANCH   5   6
ENDBRANCH   1   5
TORSDOF 4
ENDMDL
MODEL 2
REMARK VINA RESULT:      -4.2      0.791      1.044
REMARK  4 active torsions:
REMARK  status: ('A' for Active; 'I' for Inactive)
REMARK    1  A    between atoms: C2_2  and  C4_4 
REMARK    2  A    between atoms: C4_4  and  O7_7 
REMARK    3  A    between atoms: C5_5  and  C6_6 
REMARK    4  A    between atoms: C6_6  and  O7_7 
ROOT
HETATM    1  O7  UNL     1     -34.718   5.919   3.968  1.00 20.00    -0.388 OA
ENDROOT
BRANCH   1   2
HETATM    2  C4  UNL     1     -33.726   5.663   2.982  1.00 20.00     0.194 C 
BRANCH   2   3
HETATM    3  C2  UNL     1     -32.499   6.441   3.321  1.00 20.00    -0.011 C 
HETATM    4  C1  UNL     1     -32.113   7.547   2.675  1.00 20.00     0.009 C 
ENDBRANCH   2   3
ENDBRANCH   1   2
BRANCH   1   5
HETATM    5  C6  UNL     1     -35.226   4.713   4.524  1.00 20.00     0.167 C 
BRANCH   5   6
HETATM    6  C5  UNL     1     -34.820   4.638   5.987  1.00 20.00     0.022 C 
HETATM    7  C3  UNL     1     -34.341   5.979   6.511  1.00 20.00     0.007 C 
ENDBRANCH   5   6
ENDBRANCH   1   5
TORSDOF 4
ENDMDL
MODEL 3
REMARK VINA RESULT:      -4.2      0.224      4.181
REMARK  4 active torsions:
REMARK  status: ('A' for Active; 'I' for Inactive)
REMARK    1  A    between atoms: C2_2  and  C4_4 
REMARK    2  A    between atoms: C4_4  and  O7_7 
REMARK    3  A    between atoms: C5_5  and  C6_6 
REMARK    4  A    between atoms: C6_6  and  O7_7 
ROOT
HETATM    1  O7  UNL     1     -33.827   6.405   3.983  1.00 20.00    -0.388 OA
ENDROOT
BRANCH   1   2
HETATM    2  C4  UNL     1     -34.813   5.435   3.659  1.00 20.00     0.194 C 
BRANCH   2   3
HETATM    3  C2  UNL     1     -35.125   4.639   4.883  1.00 20.00    -0.011 C 
HETATM    4  C1  UNL     1     -34.778   5.006   6.122  1.00 20.00     0.009 C 
ENDBRANCH   2   3
ENDBRANCH   1   2
BRANCH   1   5
HETATM    5  C6  UNL     1     -32.610   6.166   3.289  1.00 20.00     0.167 C 
BRANCH   5   6
HETATM    6  C5  UNL     1     -31.798   7.451   3.263  1.00 20.00     0.022 C 
HETATM    7  C3  UNL     1     -32.070   8.266   2.011  1.00 20.00     0.007 C 
ENDBRANCH   5   6
ENDBRANCH   1   5
TORSDOF 4
ENDMDL
MODEL 4
REMARK VINA RESULT:      -4.2      0.920      4.060
REMARK  4 active torsions:
REMARK  status: ('A' for Active; 'I' for Inactive)
REMARK    1  A    between atoms: C2_2  and  C4_4 
REMARK    2  A    between atoms: C4_4  and  O7_7 
REMARK    3  A    between atoms: C5_5  and  C6_6 
REMARK    4  A    between atoms: C6_6  and  O7_7 
ROOT
HETATM    1  O7  UNL     1     -34.419   5.997   3.941  1.00 20.00    -0.388 OA
ENDROOT
BRANCH   1   2
HETATM    2  C4  UNL     1     -33.957   6.347   5.238  1.00 20.00     0.194 C 
BRANCH   2   3
HETATM    3  C2  UNL     1     -34.527   5.387   6.227  1.00 20.00    -0.011 C 
HETATM    4  C1  UNL     1     -35.028   4.189   5.904  1.00 20.00     0.009 C 
ENDBRANCH   2   3
ENDBRANCH   1   2
BRANCH   1   5
HETATM    5  C6  UNL     1     -33.345   5.876   3.018  1.00 20.00     0.167 C 
BRANCH   5   6
HETATM    6  C5  UNL     1     -32.255   6.865   3.401  1.00 20.00     0.022 C 
HETATM    7  C3  UNL     1     -32.055   7.926   2.336  1.00 20.00     0.007 C 
ENDBRANCH   5   6
ENDBRANCH   1   5
TORSDOF 4
ENDMDL
MODEL 5
REMARK VINA RESULT:      -4.1      0.900      1.202
REMARK  4 active torsions:
REMARK  status: ('A' for Active; 'I' for Inactive)
REMARK    1  A    between atoms: C2_2  and  C4_4 
REMARK    2  A    between atoms: C4_4  and  O7_7 
REMARK    3  A    between atoms: C5_5  and  C6_6 
REMARK    4  A    between atoms: C6_6  and  O7_7 
ROOT
HETATM    1  O7  UNL     1     -34.331   5.936   3.955  1.00 20.00    -0.388 OA
ENDROOT
BRANCH   1   2
HETATM    2  C4  UNL     1     -33.268   5.839   3.016  1.00 20.00     0.194 C 
BRANCH   2   3
HETATM    3  C2  UNL     1     -32.322   6.971   3.243  1.00 20.00    -0.011 C 
HETATM    4  C1  UNL     1     -32.071   7.927   2.341  1.00 20.00     0.009 C 
ENDBRANCH   2   3
ENDBRANCH   1   2
BRANCH   1   5
HETATM    5  C6  UNL     1     -33.862   6.334   5.236  1.00 20.00     0.167 C 
BRANCH   5   6
HETATM    6  C5  UNL     1     -34.546   5.486   6.296  1.00 20.00     0.022 C 
HETATM    7  C3  UNL     1     -34.983   4.140   5.747  1.00 20.00     0.007 C 
ENDBRANCH   5   6
ENDBRANCH   1   5
TORSDOF 4
ENDMDL
MODEL 6
REMARK VINA RESULT:      -3.9      1.062      4.492
REMARK  4 active torsions:
REMARK  status: ('A' for Active; 'I' for Inactive)
REMARK    1  A    between atoms: C2_2  and  C4_4 
REMARK    2  A    between atoms: C4_4  and  O7_7 
REMARK    3  A    between atoms: C5_5  and  C6_6 
REMARK    4  A    between atoms: C6_6  and  O7_7 
ROOT
HETATM    1  O7  UNL     1     -32.732   6.468   2.899  1.00 20.00    -0.388 OA
ENDROOT
BRANCH   1   2
HETATM    2  C4  UNL     1     -33.659   6.486   3.976  1.00 20.00     0.194 C 
BRANCH   2   3
HETATM    3  C2  UNL     1     -34.688   5.431   3.743  1.00 20.00    -0.011 C 
HETATM    4  C1  UNL     1     -35.187   4.647   4.706  1.00 20.00     0.009 C 
ENDBRANCH   2   3
ENDBRANCH   1   2
BRANCH   1   5
HETATM    5  C6  UNL     1     -31.923   7.637   2.886  1.00 20.00     0.167 C 
BRANCH   5   6
HETATM    6  C5  UNL     1     -31.972   8.253   1.497  1.00 20.00     0.022 C 
HETATM    7  C3  UNL     1     -32.452   9.692   1.534  1.00 20.00     0.007 C 
ENDBRANCH   5   6
ENDBRANCH   1   5
TORSDOF 4
ENDMDL
MODEL 7
REMARK VINA RESULT:      -3.7      0.834      1.545
REMARK  4 active torsions:
REMARK  status: ('A' for Active; 'I' for Inactive)
REMARK    1  A    between atoms: C2_2  and  C4_4 
REMARK    2  A    between atoms: C4_4  and  O7_7 
REMARK    3  A    between atoms: C5_5  and  C6_6 
REMARK    4  A    between atoms: C6_6  and  O7_7 
ROOT
HETATM    1  O7  UNL     1     -33.276   7.217   3.137  1.00 20.00    -0.388 OA
ENDROOT
BRANCH   1   2
HETATM    2  C4  UNL     1     -31.940   7.594   2.829  1.00 20.00     0.194 C 
BRANCH   2   3
HETATM    3  C2  UNL     1     -31.939   8.354   1.544  1.00 20.00    -0.011 C 
HETATM    4  C1  UNL     1     -32.435   9.588   1.406  1.00 20.00     0.009 C 
ENDBRANCH   2   3
ENDBRANCH   1   2
BRANCH   1   5
HETATM    5  C6  UNL     1     -33.359   5.849   3.512  1.00 20.00     0.167 C 
BRANCH   5   6
HETATM    6  C5  UNL     1     -34.820   5.488   3.734  1.00 20.00     0.022 C 
HETATM    7  C3  UNL     1     -35.020   4.709   5.020  1.00 20.00     0.007 C 
ENDBRANCH   5   6
ENDBRANCH   1   5
TORSDOF 4
ENDMDL
MODEL 8
REMARK VINA RESULT:      -3.4      1.151      3.655
REMARK  4 active torsions:
REMARK  status: ('A' for Active; 'I' for Inactive)
REMARK    1  A    between atoms: C2_2  and  C4_4 
REMARK    2  A    between atoms: C4_4  and  O7_7 
REMARK    3  A    between atoms: C5_5  and  C6_6 
REMARK    4  A    between atoms: C6_6  and  O7_7 
ROOT
HETATM    1  O7  UNL     1     -33.785   5.016   4.268  1.00 20.00    -0.388 OA
ENDROOT
BRANCH   1   2
HETATM    2  C4  UNL     1     -34.958   4.953   5.068  1.00 20.00     0.194 C 
BRANCH   2   3
HETATM    3  C2  UNL     1     -34.668   5.567   6.396  1.00 20.00    -0.011 C 
HETATM    4  C1  UNL     1     -33.947   6.682   6.563  1.00 20.00     0.009 C 
ENDBRANCH   2   3
ENDBRANCH   1   2
BRANCH   1   5
HETATM    5  C6  UNL     1     -34.049   5.598   2.999  1.00 20.00     0.167 C 
BRANCH   5   6
HETATM    6  C5  UNL     1     -33.304   6.920   2.900  1.00 20.00     0.022 C 
HETATM    7  C3  UNL     1     -31.882   6.808   3.417  1.00 20.00     0.007 C 
ENDBRANCH   5   6
ENDBRANCH   1   5
TORSDOF 4
ENDMDL
MODEL 9
REMARK VINA RESULT:      -3.2     11.157     11.730
REMARK  4 active torsions:
REMARK  status: ('A' for Active; 'I' for Inactive)
REMARK    1  A    between atoms: C2_2  and  C4_4 
REMARK    2  A    between atoms: C4_4  and  O7_7 
REMARK    3  A    between atoms: C5_5  and  C6_6 
REMARK    4  A    between atoms: C6_6  and  O7_7 
ROOT
HETATM    1  O7  UNL     1     -33.402  15.927  -2.731  1.00 20.00    -0.388 OA
ENDROOT
BRANCH   1   2
HETATM    2  C4  UNL     1     -33.390  15.269  -3.991  1.00 20.00     0.194 C 
BRANCH   2   3
HETATM    3  C2  UNL     1     -33.849  13.862  -3.802  1.00 20.00    -0.011 C 
HETATM    4  C1  UNL     1     -34.651  13.216  -4.657  1.00 20.00     0.009 C 
ENDBRANCH   2   3
ENDBRANCH   1   2
BRANCH   1   5
HETATM    5  C6  UNL     1     -34.711  15.971  -2.178  1.00 20.00     0.167 C 
BRANCH   5   6
HETATM    6  C5  UNL     1     -34.647  16.645  -0.816  1.00 20.00     0.022 C 
HETATM    7  C3  UNL     1     -33.570  17.712  -0.764  1.00 20.00     0.007 C 
ENDBRANCH   5   6
ENDBRANCH   1   5
TORSDOF 4
ENDMDL
