MODEL 1
REMARK VINA RESULT:      -6.2      0.000      0.000
REMARK  4 active torsions:
REMARK  status: ('A' for Active; 'I' for Inactive)
REMARK    1  A    between atoms: C6_6  and  C8_8 
REMARK    2  A    between atoms: C8_8  and  C10_10 
REMARK    3  A    between atoms: C9_9  and  C11_11 
REMARK    4  A    between atoms: C10_10  and  C11_11 
ROOT
HETATM    1  C1  UNL     1     -35.021   4.723   6.611  1.00 20.00     0.000 A 
HETATM    2  C2  UNL     1     -34.357   5.948   6.561  1.00 20.00     0.001 A 
HETATM    3  C3  UNL     1     -35.221   3.990   5.440  1.00 20.00     0.001 A 
HETATM    4  C4  UNL     1     -33.893   6.443   5.343  1.00 20.00     0.007 A 
HETATM    5  C5  UNL     1     -34.758   4.485   4.221  1.00 20.00     0.007 A 
HETATM    6  C6  UNL     1     -34.094   5.711   4.172  1.00 20.00    -0.058 A 
ENDROOT
BRANCH   6   7
HETATM    7  C8  UNL     1     -33.597   6.241   2.861  1.00 20.00     0.038 C 
BRANCH   7   8
HETATM    8  C10 UNL     1     -32.085   6.486   2.838  1.00 20.00     0.005 C 
BRANCH   8   9
HETATM    9  C11 UNL     1     -31.715   7.970   2.759  1.00 20.00    -0.000 C 
BRANCH   9  10
HETATM   10  C9  UNL     1     -31.834   8.495   1.327  1.00 20.00    -0.005 C 
HETATM   11  C7  UNL     1     -32.505   9.859   1.288  1.00 20.00     0.005 C 
ENDBRANCH   9  10
ENDBRANCH   8   9
ENDBRANCH   7   8
ENDBRANCH   6   7
TORSDOF 4
ENDMDL
MODEL 2
REMARK VINA RESULT:      -6.2      0.015      1.457
REMARK  4 active torsions:
REMARK  status: ('A' for Active; 'I' for Inactive)
REMARK    1  A    between atoms: C6_6  and  C8_8 
REMARK    2  A    between atoms: C8_8  and  C10_10 
REMARK    3  A    between atoms: C9_9  and  C11_11 
REMARK    4  A    between atoms: C10_10  and  C11_11 
ROOT
HETATM    1  C1  UNL     1     -35.033   4.724   6.615  1.00 20.00     0.000 A 
HETATM    2  C2  UNL     1     -35.226   3.993   5.443  1.00 20.00     0.001 A 
HETATM    3  C3  UNL     1     -34.370   5.952   6.570  1.00 20.00     0.001 A 
HETATM    4  C4  UNL     1     -34.757   4.487   4.226  1.00 20.00     0.007 A 
HETATM    5  C5  UNL     1     -33.900   6.446   5.353  1.00 20.00     0.007 A 
HETATM    6  C6  UNL     1     -34.093   5.714   4.182  1.00 20.00    -0.058 A 
ENDROOT
BRANCH   6   7
HETATM    7  C8  UNL     1     -33.588   6.246   2.875  1.00 20.00     0.038 C 
BRANCH   7   8
HETATM    8  C10 UNL     1     -32.076   6.490   2.860  1.00 20.00     0.005 C 
BRANCH   8   9
HETATM    9  C11 UNL     1     -31.704   7.973   2.760  1.00 20.00    -0.000 C 
BRANCH   9  10
HETATM   10  C9  UNL     1     -31.841   8.481   1.323  1.00 20.00    -0.005 C 
HETATM   11  C7  UNL     1     -32.484   9.859   1.279  1.00 20.00     0.005 C 
ENDBRANCH   9  10
ENDBRANCH   8   9
ENDBRANCH   7   8
ENDBRANCH   6   7
TORSDOF 4
ENDMDL
MODEL 3
REMARK VINA RESULT:      -5.0     11.207     12.045
REMARK  4 active torsions:
REMARK  status: ('A' for Active; 'I' for Inactive)
REMARK    1  A    between atoms: C6_6  and  C8_8 
REMARK    2  A    between atoms: C8_8  and  C10_10 
REMARK    3  A    between atoms: C9_9  and  C11_11 
REMARK    4  A    between atoms: C10_10  and  C11_11 
ROOT
HETATM    1  C1  UNL     1     -35.372  13.517  -4.435  1.00 20.00     0.000 A 
HETATM    2  C2  UNL     1     -36.250  14.448  -3.880  1.00 20.00     0.001 A 
HETATM    3  C3  UNL     1     -34.003  13.615  -4.184  1.00 20.00     0.001 A 
HETATM    4  C4  UNL     1     -35.761  15.475  -3.074  1.00 20.00     0.007 A 
HETATM    5  C5  UNL     1     -33.513  14.642  -3.378  1.00 20.00     0.007 A 
HETATM    6  C6  UNL     1     -34.392  15.573  -2.824  1.00 20.00    -0.058 A 
ENDROOT
BRANCH   6   7
HETATM    7  C8  UNL     1     -33.865  16.677  -1.958  1.00 20.00     0.038 C 
BRANCH   7   8
HETATM    8  C10 UNL     1     -34.580  16.786  -0.608  1.00 20.00     0.005 C 
BRANCH   8   9
HETATM    9  C11 UNL     1     -34.104  17.975   0.234  1.00 20.00    -0.000 C 
BRANCH   9  10
HETATM   10  C9  UNL     1     -32.899  18.662  -0.412  1.00 20.00    -0.005 C 
HETATM   11  C7  UNL     1     -31.820  18.973   0.614  1.00 20.00     0.005 C 
ENDBRANCH   9  10
ENDBRANCH   8   9
ENDBRANCH   7   8
ENDBRANCH   6   7
TORSDOF 4
ENDMDL
MODEL 4
REMARK VINA RESULT:      -4.8     10.975     12.141
REMARK  4 active torsions:
REMARK  status: ('A' for Active; 'I' for Inactive)
REMARK    1  A    between atoms: C6_6  and  C8_8 
REMARK    2  A    between atoms: C8_8  and  C10_10 
REMARK    3  A    between atoms: C9_9  and  C11_11 
REMARK    4  A    between atoms: C10_10  and  C11_11 
ROOT
HETATM    1  C1  UNL     1     -33.639  18.842   1.316  1.00 20.00     0.000 A 
HETATM    2  C2  UNL     1     -34.796  18.063   1.367  1.00 20.00     0.001 A 
HETATM    3  C3  UNL     1     -32.785  18.749   0.216  1.00 20.00     0.001 A 
HETATM    4  C4  UNL     1     -35.098  17.191   0.322  1.00 20.00     0.007 A 
HETATM    5  C5  UNL     1     -33.086  17.876  -0.830  1.00 20.00     0.007 A 
HETATM    6  C6  UNL     1     -34.243  17.098  -0.777  1.00 20.00    -0.058 A 
ENDROOT
BRANCH   6   7
HETATM    7  C8  UNL     1     -34.566  16.161  -1.901  1.00 20.00     0.038 C 
BRANCH   7   8
HETATM    8  C10 UNL     1     -33.652  16.332  -3.118  1.00 20.00     0.005 C 
BRANCH   8   9
HETATM    9  C11 UNL     1     -33.232  15.001  -3.750  1.00 20.00    -0.000 C 
BRANCH   9  10
HETATM   10  C9  UNL     1     -34.285  13.918  -3.511  1.00 20.00    -0.005 C 
HETATM   11  C7  UNL     1     -34.696  13.244  -4.811  1.00 20.00     0.005 C 
ENDBRANCH   9  10
ENDBRANCH   8   9
ENDBRANCH   7   8
ENDBRANCH   6   7
TORSDOF 4
ENDMDL
MODEL 5
REMARK VINA RESULT:      -4.8     10.994     12.132
REMARK  4 active torsions:
REMARK  status: ('A' for Active; 'I' for Inactive)
REMARK    1  A    between atoms: C6_6  and  C8_8 
REMARK    2  A    between atoms: C8_8  and  C10_10 
REMARK    3  A    between atoms: C9_9  and  C11_11 
REMARK    4  A    between atoms: C10_10  and  C11_11 
ROOT
HETATM    1  C1  UNL     1     -33.640  18.913   1.368  1.00 20.00     0.000 A 
HETATM    2  C2  UNL     1     -32.820  18.842   0.242  1.00 20.00     0.001 A 
HETATM    3  C3  UNL     1     -34.768  18.095   1.461  1.00 20.00     0.001 A 
HETATM    4  C4  UNL     1     -33.125  17.956  -0.791  1.00 20.00     0.007 A 
HETATM    5  C5  UNL     1     -35.074  17.209   0.428  1.00 20.00     0.007 A 
HETATM    6  C6  UNL     1     -34.253  17.140  -0.698  1.00 20.00    -0.058 A 
ENDROOT
BRANCH   6   7
HETATM    7  C8  UNL     1     -34.582  16.187  -1.807  1.00 20.00     0.038 C 
BRANCH   7   8
HETATM    8  C10 UNL     1     -33.727  16.393  -3.061  1.00 20.00     0.005 C 
BRANCH   8   9
HETATM    9  C11 UNL     1     -33.250  15.079  -3.689  1.00 20.00    -0.000 C 
BRANCH   9  10
HETATM   10  C9  UNL     1     -34.280  13.966  -3.493  1.00 20.00    -0.005 C 
HETATM   11  C7  UNL     1     -34.537  13.211  -4.788  1.00 20.00     0.005 C 
ENDBRANCH   9  10
ENDBRANCH   8   9
ENDBRANCH   7   8
ENDBRANCH   6   7
TORSDOF 4
ENDMDL
MODEL 6
REMARK VINA RESULT:      -4.7     11.201     12.095
REMARK  4 active torsions:
REMARK  status: ('A' for Active; 'I' for Inactive)
REMARK    1  A    between atoms: C6_6  and  C8_8 
REMARK    2  A    between atoms: C8_8  and  C10_10 
REMARK    3  A    between atoms: C9_9  and  C11_11 
REMARK    4  A    between atoms: C10_10  and  C11_11 
ROOT
HETATM    1  C1  UNL     1     -34.586  13.434  -4.353  1.00 20.00     0.000 A 
HETATM    2  C2  UNL     1     -33.371  13.996  -3.963  1.00 20.00     0.001 A 
HETATM    3  C3  UNL     1     -35.786  14.052  -3.998  1.00 20.00     0.001 A 
HETATM    4  C4  UNL     1     -33.354  15.175  -3.218  1.00 20.00     0.007 A 
HETATM    5  C5  UNL     1     -35.770  15.231  -3.253  1.00 20.00     0.007 A 
HETATM    6  C6  UNL     1     -34.554  15.792  -2.863  1.00 20.00    -0.058 A 
ENDROOT
BRANCH   6   7
HETATM    7  C8  UNL     1     -34.537  17.059  -2.062  1.00 20.00     0.038 C 
BRANCH   7   8
HETATM    8  C10 UNL     1     -34.749  16.835  -0.562  1.00 20.00     0.005 C 
BRANCH   8   9
HETATM    9  C11 UNL     1     -34.033  17.870   0.311  1.00 20.00    -0.000 C 
BRANCH   9  10
HETATM   10  C9  UNL     1     -32.905  18.558  -0.459  1.00 20.00    -0.005 C 
HETATM   11  C7  UNL     1     -31.937  19.260   0.480  1.00 20.00     0.005 C 
ENDBRANCH   9  10
ENDBRANCH   8   9
ENDBRANCH   7   8
ENDBRANCH   6   7
TORSDOF 4
ENDMDL
MODEL 7
REMARK VINA RESULT:      -4.6     11.098     12.511
REMARK  4 active torsions:
REMARK  status: ('A' for Active; 'I' for Inactive)
REMARK    1  A    between atoms: C6_6  and  C8_8 
REMARK    2  A    between atoms: C8_8  and  C10_10 
REMARK    3  A    between atoms: C9_9  and  C11_11 
REMARK    4  A    between atoms: C10_10  and  C11_11 
ROOT
HETATM    1  C1  UNL     1     -34.824  13.905  -5.879  1.00 20.00     0.000 A 
HETATM    2  C2  UNL     1     -34.479  15.247  -6.041  1.00 20.00     0.001 A 
HETATM    3  C3  UNL     1     -34.794  13.325  -4.610  1.00 20.00     0.001 A 
HETATM    4  C4  UNL     1     -34.104  16.010  -4.935  1.00 20.00     0.007 A 
HETATM    5  C5  UNL     1     -34.419  14.088  -3.504  1.00 20.00     0.007 A 
HETATM    6  C6  UNL     1     -34.074  15.430  -3.667  1.00 20.00    -0.058 A 
ENDROOT
BRANCH   6   7
HETATM    7  C8  UNL     1     -33.671  16.248  -2.478  1.00 20.00     0.038 C 
BRANCH   7   8
HETATM    8  C10 UNL     1     -34.789  16.412  -1.444  1.00 20.00     0.005 C 
BRANCH   8   9
HETATM    9  C11 UNL     1     -34.396  17.306  -0.264  1.00 20.00    -0.000 C 
BRANCH   9  10
HETATM   10  C9  UNL     1     -33.552  18.495  -0.729  1.00 20.00    -0.005 C 
HETATM   11  C7  UNL     1     -32.318  18.676   0.142  1.00 20.00     0.005 C 
ENDBRANCH   9  10
ENDBRANCH   8   9
ENDBRANCH   7   8
ENDBRANCH   6   7
TORSDOF 4
ENDMDL
MODEL 8
REMARK VINA RESULT:      -4.5     11.592     13.156
REMARK  4 active torsions:
REMARK  status: ('A' for Active; 'I' for Inactive)
REMARK    1  A    between atoms: C6_6  and  C8_8 
REMARK    2  A    between atoms: C8_8  and  C10_10 
REMARK    3  A    between atoms: C9_9  and  C11_11 
REMARK    4  A    between atoms: C10_10  and  C11_11 
ROOT
HETATM    1  C1  UNL     1     -34.943  15.056  -7.335  1.00 20.00     0.000 A 
HETATM    2  C2  UNL     1     -34.214  16.183  -6.956  1.00 20.00     0.001 A 
HETATM    3  C3  UNL     1     -35.131  14.011  -6.430  1.00 20.00     0.001 A 
HETATM    4  C4  UNL     1     -33.673  16.267  -5.674  1.00 20.00     0.007 A 
HETATM    5  C5  UNL     1     -34.590  14.093  -5.147  1.00 20.00     0.007 A 
HETATM    6  C6  UNL     1     -33.861  15.221  -4.769  1.00 20.00    -0.058 A 
ENDROOT
BRANCH   6   7
HETATM    7  C8  UNL     1     -33.280  15.309  -3.390  1.00 20.00     0.038 C 
BRANCH   7   8
HETATM    8  C10 UNL     1     -33.752  16.539  -2.608  1.00 20.00     0.005 C 
BRANCH   8   9
HETATM    9  C11 UNL     1     -34.778  16.206  -1.520  1.00 20.00    -0.000 C 
BRANCH   9  10
HETATM   10  C9  UNL     1     -34.591  17.099  -0.292  1.00 20.00    -0.005 C 
HETATM   11  C7  UNL     1     -33.407  18.038  -0.462  1.00 20.00     0.005 C 
ENDBRANCH   9  10
ENDBRANCH   8   9
ENDBRANCH   7   8
ENDBRANCH   6   7
TORSDOF 4
ENDMDL
MODEL 9
REMARK VINA RESULT:      -4.5     11.144     12.564
REMARK  4 active torsions:
REMARK  status: ('A' for Active; 'I' for Inactive)
REMARK    1  A    between atoms: C6_6  and  C8_8 
REMARK    2  A    between atoms: C8_8  and  C10_10 
REMARK    3  A    between atoms: C9_9  and  C11_11 
REMARK    4  A    between atoms: C10_10  and  C11_11 
ROOT
HETATM    1  C1  UNL     1     -33.669  18.623  -1.231  1.00 20.00     0.000 A 
HETATM    2  C2  UNL     1     -33.623  18.453  -2.615  1.00 20.00     0.001 A 
HETATM    3  C3  UNL     1     -34.187  17.611  -0.422  1.00 20.00     0.001 A 
HETATM    4  C4  UNL     1     -34.094  17.274  -3.191  1.00 20.00     0.007 A 
HETATM    5  C5  UNL     1     -34.660  16.431  -0.997  1.00 20.00     0.007 A 
HETATM    6  C6  UNL     1     -34.613  16.263  -2.381  1.00 20.00    -0.058 A 
ENDROOT
BRANCH   6   7
HETATM    7  C8  UNL     1     -35.121  14.995  -2.998  1.00 20.00     0.038 C 
BRANCH   7   8
HETATM    8  C10 UNL     1     -34.013  14.121  -3.592  1.00 20.00     0.005 C 
BRANCH   8   9
HETATM    9  C11 UNL     1     -34.440  13.386  -4.867  1.00 20.00    -0.000 C 
BRANCH   9  10
HETATM   10  C9  UNL     1     -35.271  14.294  -5.776  1.00 20.00    -0.005 C 
HETATM   11  C7  UNL     1     -34.400  14.992  -6.809  1.00 20.00     0.005 C 
ENDBRANCH   9  10
ENDBRANCH   8   9
ENDBRANCH   7   8
ENDBRANCH   6   7
TORSDOF 4
ENDMDL
