MODEL 1
REMARK VINA RESULT:      -5.4      0.000      0.000
REMARK  1 active torsions:
REMARK  status: ('A' for Active; 'I' for Inactive)
REMARK    1  A    between atoms: C6_6  and  O8_8 
ROOT
HETATM    1  C1  UNL     1     -35.113   4.668   6.020  1.00 20.00     0.000 A 
HETATM    2  C2  UNL     1     -35.291   4.393   4.664  1.00 20.00     0.003 A 
HETATM    3  C3  UNL     1     -34.304   5.734   6.415  1.00 20.00     0.003 A 
HETATM    4  C4  UNL     1     -34.661   5.182   3.703  1.00 20.00     0.037 A 
HETATM    5  C5  UNL     1     -33.674   6.523   5.453  1.00 20.00     0.037 A 
HETATM    6  C6  UNL     1     -33.851   6.248   4.098  1.00 20.00     0.068 A 
ENDROOT
BRANCH   6   7
HETATM    7  O8  UNL     1     -33.234   7.018   3.160  1.00 20.00    -0.356 OA
HETATM    8  C7  UNL     1     -31.844   7.279   3.347  1.00 20.00     0.210 C 
ENDBRANCH   6   7
TORSDOF 1
ENDMDL
MODEL 2
REMARK VINA RESULT:      -5.4      0.024      1.708
REMARK  1 active torsions:
REMARK  status: ('A' for Active; 'I' for Inactive)
REMARK    1  A    between atoms: C6_6  and  O8_8 
ROOT
HETATM    1  C1  UNL     1     -35.123   4.690   6.032  1.00 20.00     0.000 A 
HETATM    2  C2  UNL     1     -34.323   5.766   6.418  1.00 20.00     0.003 A 
HETATM    3  C3  UNL     1     -35.293   4.398   4.679  1.00 20.00     0.003 A 
HETATM    4  C4  UNL     1     -33.693   6.549   5.451  1.00 20.00     0.037 A 
HETATM    5  C5  UNL     1     -34.662   5.182   3.712  1.00 20.00     0.037 A 
HETATM    6  C6  UNL     1     -33.863   6.257   4.098  1.00 20.00     0.068 A 
ENDROOT
BRANCH   6   7
HETATM    7  O8  UNL     1     -33.250   7.022   3.154  1.00 20.00    -0.356 OA
HETATM    8  C7  UNL     1     -31.855   7.272   3.325  1.00 20.00     0.210 C 
ENDBRANCH   6   7
TORSDOF 1
ENDMDL
MODEL 3
REMARK VINA RESULT:      -4.0      1.425      2.560
REMARK  1 active torsions:
REMARK  status: ('A' for Active; 'I' for Inactive)
REMARK    1  A    between atoms: C6_6  and  O8_8 
ROOT
HETATM    1  C1  UNL     1     -35.332   4.283   4.445  1.00 20.00     0.000 A 
HETATM    2  C2  UNL     1     -35.123   4.293   5.824  1.00 20.00     0.003 A 
HETATM    3  C3  UNL     1     -34.775   5.283   3.648  1.00 20.00     0.003 A 
HETATM    4  C4  UNL     1     -34.357   5.302   6.406  1.00 20.00     0.037 A 
HETATM    5  C5  UNL     1     -34.008   6.292   4.231  1.00 20.00     0.037 A 
HETATM    6  C6  UNL     1     -33.799   6.302   5.609  1.00 20.00     0.068 A 
ENDROOT
BRANCH   6   7
HETATM    7  O8  UNL     1     -33.052   7.288   6.177  1.00 20.00    -0.356 OA
HETATM    8  C7  UNL     1     -33.485   7.783   7.443  1.00 20.00     0.210 C 
ENDBRANCH   6   7
TORSDOF 1
ENDMDL
MODEL 4
REMARK VINA RESULT:      -4.0      1.410      2.330
REMARK  1 active torsions:
REMARK  status: ('A' for Active; 'I' for Inactive)
REMARK    1  A    between atoms: C6_6  and  O8_8 
ROOT
HETATM    1  C1  UNL     1     -35.341   4.293   4.402  1.00 20.00     0.000 A 
HETATM    2  C2  UNL     1     -34.757   5.281   3.607  1.00 20.00     0.003 A 
HETATM    3  C3  UNL     1     -35.147   4.305   5.783  1.00 20.00     0.003 A 
HETATM    4  C4  UNL     1     -33.980   6.279   4.194  1.00 20.00     0.037 A 
HETATM    5  C5  UNL     1     -34.370   5.304   6.369  1.00 20.00     0.037 A 
HETATM    6  C6  UNL     1     -33.786   6.291   5.576  1.00 20.00     0.068 A 
ENDROOT
BRANCH   6   7
HETATM    7  O8  UNL     1     -33.026   7.264   6.148  1.00 20.00    -0.356 OA
HETATM    8  C7  UNL     1     -33.468   7.779   7.403  1.00 20.00     0.210 C 
ENDBRANCH   6   7
TORSDOF 1
ENDMDL
MODEL 5
REMARK VINA RESULT:      -3.9     11.958     12.549
REMARK  1 active torsions:
REMARK  status: ('A' for Active; 'I' for Inactive)
REMARK    1  A    between atoms: C6_6  and  O8_8 
ROOT
HETATM    1  C1  UNL     1     -33.367  14.786  -3.529  1.00 20.00     0.000 A 
HETATM    2  C2  UNL     1     -34.265  15.678  -2.944  1.00 20.00     0.003 A 
HETATM    3  C3  UNL     1     -33.841  13.671  -4.220  1.00 20.00     0.003 A 
HETATM    4  C4  UNL     1     -35.638  15.456  -3.048  1.00 20.00     0.037 A 
HETATM    5  C5  UNL     1     -35.215  13.449  -4.324  1.00 20.00     0.037 A 
HETATM    6  C6  UNL     1     -36.112  14.340  -3.738  1.00 20.00     0.068 A 
ENDROOT
BRANCH   6   7
HETATM    7  O8  UNL     1     -37.452  14.122  -3.839  1.00 20.00    -0.356 OA
HETATM    8  C7  UNL     1     -38.312  15.236  -3.603  1.00 20.00     0.210 C 
ENDBRANCH   6   7
TORSDOF 1
ENDMDL
MODEL 6
REMARK VINA RESULT:      -3.9     11.904     12.474
REMARK  1 active torsions:
REMARK  status: ('A' for Active; 'I' for Inactive)
REMARK    1  A    between atoms: C6_6  and  O8_8 
ROOT
HETATM    1  C1  UNL     1     -33.263  14.849  -3.533  1.00 20.00     0.000 A 
HETATM    2  C2  UNL     1     -33.718  13.691  -4.164  1.00 20.00     0.003 A 
HETATM    3  C3  UNL     1     -34.176  15.757  -2.998  1.00 20.00     0.003 A 
HETATM    4  C4  UNL     1     -35.087  13.440  -4.259  1.00 20.00     0.037 A 
HETATM    5  C5  UNL     1     -35.545  15.506  -3.094  1.00 20.00     0.037 A 
HETATM    6  C6  UNL     1     -36.000  14.348  -3.724  1.00 20.00     0.068 A 
ENDROOT
BRANCH   6   7
HETATM    7  O8  UNL     1     -37.336  14.105  -3.818  1.00 20.00    -0.356 OA
HETATM    8  C7  UNL     1     -38.207  15.234  -3.767  1.00 20.00     0.210 C 
ENDBRANCH   6   7
TORSDOF 1
ENDMDL
MODEL 7
REMARK VINA RESULT:      -3.9      9.698     10.642
REMARK  1 active torsions:
REMARK  status: ('A' for Active; 'I' for Inactive)
REMARK    1  A    between atoms: C6_6  and  O8_8 
ROOT
HETATM    1  C1  UNL     1     -40.675   5.735  -0.467  1.00 20.00     0.000 A 
HETATM    2  C2  UNL     1     -41.142   4.660  -1.223  1.00 20.00     0.003 A 
HETATM    3  C3  UNL     1     -41.040   7.038  -0.807  1.00 20.00     0.003 A 
HETATM    4  C4  UNL     1     -41.974   4.887  -2.319  1.00 20.00     0.037 A 
HETATM    5  C5  UNL     1     -41.873   7.265  -1.903  1.00 20.00     0.037 A 
HETATM    6  C6  UNL     1     -42.339   6.190  -2.659  1.00 20.00     0.068 A 
ENDROOT
BRANCH   6   7
HETATM    7  O8  UNL     1     -43.150   6.412  -3.730  1.00 20.00    -0.356 OA
HETATM    8  C7  UNL     1     -43.325   7.767  -4.142  1.00 20.00     0.210 C 
ENDBRANCH   6   7
TORSDOF 1
ENDMDL
MODEL 8
REMARK VINA RESULT:      -3.8      9.348     10.467
REMARK  1 active torsions:
REMARK  status: ('A' for Active; 'I' for Inactive)
REMARK    1  A    between atoms: C6_6  and  O8_8 
ROOT
HETATM    1  C1  UNL     1     -41.088   7.066  -0.831  1.00 20.00     0.000 A 
HETATM    2  C2  UNL     1     -41.963   7.254  -1.901  1.00 20.00     0.003 A 
HETATM    3  C3  UNL     1     -40.665   5.780  -0.494  1.00 20.00     0.003 A 
HETATM    4  C4  UNL     1     -42.416   6.156  -2.633  1.00 20.00     0.037 A 
HETATM    5  C5  UNL     1     -41.118   4.683  -1.226  1.00 20.00     0.037 A 
HETATM    6  C6  UNL     1     -41.993   4.871  -2.295  1.00 20.00     0.068 A 
ENDROOT
BRANCH   6   7
HETATM    7  O8  UNL     1     -42.437   3.799  -3.008  1.00 20.00    -0.356 OA
HETATM    8  C7  UNL     1     -41.571   2.668  -3.086  1.00 20.00     0.210 C 
ENDBRANCH   6   7
TORSDOF 1
ENDMDL
MODEL 9
REMARK VINA RESULT:      -3.8     11.964     13.555
REMARK  1 active torsions:
REMARK  status: ('A' for Active; 'I' for Inactive)
REMARK    1  A    between atoms: C6_6  and  O8_8 
ROOT
HETATM    1  C1  UNL     1     -34.733  13.273  -4.764  1.00 20.00     0.000 A 
HETATM    2  C2  UNL     1     -33.959  13.728  -3.696  1.00 20.00     0.003 A 
HETATM    3  C3  UNL     1     -34.917  14.080  -5.887  1.00 20.00     0.003 A 
HETATM    4  C4  UNL     1     -33.369  14.991  -3.752  1.00 20.00     0.037 A 
HETATM    5  C5  UNL     1     -34.326  15.342  -5.941  1.00 20.00     0.037 A 
HETATM    6  C6  UNL     1     -33.553  15.798  -4.875  1.00 20.00     0.068 A 
ENDROOT
BRANCH   6   7
HETATM    7  O8  UNL     1     -32.978  17.031  -4.928  1.00 20.00    -0.356 OA
HETATM    8  C7  UNL     1     -33.672  18.039  -5.661  1.00 20.00     0.210 C 
ENDBRANCH   6   7
TORSDOF 1
ENDMDL
