MODEL 1
REMARK VINA RESULT:      -5.6      0.000      0.000
REMARK  0 active torsions:
REMARK  status: ('A' for Active; 'I' for Inactive)
ROOT
HETATM    1  C1  UNL     1     -35.303   4.616   5.829  1.00 20.00     0.001 A 
HETATM    2  C2  UNL     1     -34.683   5.528   6.687  1.00 20.00     0.003 A 
HETATM    3  C3  UNL     1     -34.987   4.578   4.464  1.00 20.00     0.014 A 
HETATM    4  C4  UNL     1     -33.727   6.432   6.215  1.00 20.00     0.038 A 
HETATM    5  C5  UNL     1     -33.450   5.751   2.700  1.00 20.00     0.039 A 
HETATM    6  C6  UNL     1     -32.554   6.776   2.894  1.00 20.00     0.143 A 
HETATM    7  C7  UNL     1     -34.029   5.478   3.968  1.00 20.00    -0.001 A 
HETATM    8  C8  UNL     1     -33.433   6.370   4.854  1.00 20.00     0.085 A 
HETATM    9  O9  UNL     1     -32.537   7.159   4.198  1.00 20.00    -0.322 OA
ENDROOT
TORSDOF 0
ENDMDL
MODEL 2
REMARK VINA RESULT:      -5.5      0.895      1.949
REMARK  0 active torsions:
REMARK  status: ('A' for Active; 'I' for Inactive)
ROOT
HETATM    1  C1  UNL     1     -34.665   5.572   6.653  1.00 20.00     0.001 A 
HETATM    2  C2  UNL     1     -35.293   4.654   5.807  1.00 20.00     0.003 A 
HETATM    3  C3  UNL     1     -33.709   6.471   6.161  1.00 20.00     0.014 A 
HETATM    4  C4  UNL     1     -34.990   4.599   4.444  1.00 20.00     0.038 A 
HETATM    5  C5  UNL     1     -32.509   7.145   3.935  1.00 20.00     0.039 A 
HETATM    6  C6  UNL     1     -32.675   6.612   2.678  1.00 20.00     0.143 A 
HETATM    7  C7  UNL     1     -33.388   6.434   4.793  1.00 20.00    -0.001 A 
HETATM    8  C8  UNL     1     -34.035   5.505   3.984  1.00 20.00     0.085 A 
HETATM    9  O9  UNL     1     -33.599   5.615   2.698  1.00 20.00    -0.322 OA
ENDROOT
TORSDOF 0
ENDMDL
MODEL 3
REMARK VINA RESULT:      -4.6      1.194      3.098
REMARK  0 active torsions:
REMARK  status: ('A' for Active; 'I' for Inactive)
ROOT
HETATM    1  C1  UNL     1     -32.917   6.280   2.492  1.00 20.00     0.001 A 
HETATM    2  C2  UNL     1     -32.327   7.117   3.443  1.00 20.00     0.003 A 
HETATM    3  C3  UNL     1     -33.921   5.371   2.853  1.00 20.00     0.014 A 
HETATM    4  C4  UNL     1     -32.715   7.077   4.784  1.00 20.00     0.038 A 
HETATM    5  C5  UNL     1     -35.273   4.562   4.943  1.00 20.00     0.039 A 
HETATM    6  C6  UNL     1     -35.176   4.996   6.245  1.00 20.00     0.143 A 
HETATM    7  C7  UNL     1     -34.327   5.314   4.198  1.00 20.00    -0.001 A 
HETATM    8  C8  UNL     1     -33.715   6.164   5.114  1.00 20.00     0.085 A 
HETATM    9  O9  UNL     1     -34.233   5.968   6.358  1.00 20.00    -0.322 OA
ENDROOT
TORSDOF 0
ENDMDL
MODEL 4
REMARK VINA RESULT:      -4.6      1.454      3.660
REMARK  0 active torsions:
REMARK  status: ('A' for Active; 'I' for Inactive)
ROOT
HETATM    1  C1  UNL     1     -32.594   6.845   3.033  1.00 20.00     0.001 A 
HETATM    2  C2  UNL     1     -33.358   5.940   2.293  1.00 20.00     0.003 A 
HETATM    3  C3  UNL     1     -32.767   6.974   4.418  1.00 20.00     0.014 A 
HETATM    4  C4  UNL     1     -34.320   5.133   2.905  1.00 20.00     0.038 A 
HETATM    5  C5  UNL     1     -34.195   6.006   6.386  1.00 20.00     0.039 A 
HETATM    6  C6  UNL     1     -35.173   5.041   6.338  1.00 20.00     0.143 A 
HETATM    7  C7  UNL     1     -33.730   6.173   5.055  1.00 20.00    -0.001 A 
HETATM    8  C8  UNL     1     -34.470   5.283   4.283  1.00 20.00     0.085 A 
HETATM    9  O9  UNL     1     -35.348   4.596   5.066  1.00 20.00    -0.322 OA
ENDROOT
TORSDOF 0
ENDMDL
MODEL 5
REMARK VINA RESULT:      -4.5      9.933     10.781
REMARK  0 active torsions:
REMARK  status: ('A' for Active; 'I' for Inactive)
ROOT
HETATM    1  C1  UNL     1     -40.594   6.115  -0.395  1.00 20.00     0.001 A 
HETATM    2  C2  UNL     1     -41.243   7.170  -1.041  1.00 20.00     0.003 A 
HETATM    3  C3  UNL     1     -40.812   4.786  -0.783  1.00 20.00     0.014 A 
HETATM    4  C4  UNL     1     -42.130   6.938  -2.096  1.00 20.00     0.038 A 
HETATM    5  C5  UNL     1     -42.176   3.372  -2.512  1.00 20.00     0.039 A 
HETATM    6  C6  UNL     1     -43.047   3.813  -3.481  1.00 20.00     0.143 A 
HETATM    7  C7  UNL     1     -41.700   4.529  -1.842  1.00 20.00    -0.001 A 
HETATM    8  C8  UNL     1     -42.326   5.607  -2.460  1.00 20.00     0.085 A 
HETATM    9  O9  UNL     1     -43.146   5.169  -3.456  1.00 20.00    -0.322 OA
ENDROOT
TORSDOF 0
ENDMDL
MODEL 6
REMARK VINA RESULT:      -4.5     10.125     10.904
REMARK  0 active torsions:
REMARK  status: ('A' for Active; 'I' for Inactive)
ROOT
HETATM    1  C1  UNL     1     -40.634   5.785  -0.414  1.00 20.00     0.001 A 
HETATM    2  C2  UNL     1     -41.033   4.578  -0.995  1.00 20.00     0.003 A 
HETATM    3  C3  UNL     1     -41.075   7.013  -0.925  1.00 20.00     0.014 A 
HETATM    4  C4  UNL     1     -41.884   4.553  -2.103  1.00 20.00     0.038 A 
HETATM    5  C5  UNL     1     -42.577   8.002  -2.826  1.00 20.00     0.039 A 
HETATM    6  C6  UNL     1     -43.292   7.328  -3.789  1.00 20.00     0.143 A 
HETATM    7  C7  UNL     1     -41.932   7.012  -2.039  1.00 20.00    -0.001 A 
HETATM    8  C8  UNL     1     -42.307   5.790  -2.588  1.00 20.00     0.085 A 
HETATM    9  O9  UNL     1     -43.133   5.985  -3.653  1.00 20.00    -0.322 OA
ENDROOT
TORSDOF 0
ENDMDL
MODEL 7
REMARK VINA RESULT:      -4.3     12.106     13.777
REMARK  0 active torsions:
REMARK  status: ('A' for Active; 'I' for Inactive)
ROOT
HETATM    1  C1  UNL     1     -34.422  13.334  -4.857  1.00 20.00     0.001 A 
HETATM    2  C2  UNL     1     -33.578  13.706  -3.807  1.00 20.00     0.003 A 
HETATM    3  C3  UNL     1     -34.791  14.253  -5.849  1.00 20.00     0.014 A 
HETATM    4  C4  UNL     1     -33.074  15.005  -3.709  1.00 20.00     0.038 A 
HETATM    5  C5  UNL     1     -34.425  16.750  -6.542  1.00 20.00     0.039 A 
HETATM    6  C6  UNL     1     -33.669  17.711  -5.910  1.00 20.00     0.143 A 
HETATM    7  C7  UNL     1     -34.295  15.566  -5.769  1.00 20.00    -0.001 A 
HETATM    8  C8  UNL     1     -33.457  15.897  -4.709  1.00 20.00     0.085 A 
HETATM    9  O9  UNL     1     -33.079  17.203  -4.797  1.00 20.00    -0.322 OA
ENDROOT
TORSDOF 0
ENDMDL
MODEL 8
REMARK VINA RESULT:      -4.3     12.113     13.874
REMARK  0 active torsions:
REMARK  status: ('A' for Active; 'I' for Inactive)
ROOT
HETATM    1  C1  UNL     1     -33.109  15.169  -3.706  1.00 20.00     0.001 A 
HETATM    2  C2  UNL     1     -33.675  13.891  -3.704  1.00 20.00     0.003 A 
HETATM    3  C3  UNL     1     -33.297  16.040  -4.788  1.00 20.00     0.014 A 
HETATM    4  C4  UNL     1     -34.445  13.438  -4.777  1.00 20.00     0.038 A 
HETATM    5  C5  UNL     1     -34.480  16.160  -7.119  1.00 20.00     0.039 A 
HETATM    6  C6  UNL     1     -35.239  15.197  -7.744  1.00 20.00     0.143 A 
HETATM    7  C7  UNL     1     -34.068  15.605  -5.879  1.00 20.00    -0.001 A 
HETATM    8  C8  UNL     1     -34.615  14.326  -5.838  1.00 20.00     0.085 A 
HETATM    9  O9  UNL     1     -35.325  14.080  -6.974  1.00 20.00    -0.322 OA
ENDROOT
TORSDOF 0
ENDMDL
MODEL 9
REMARK VINA RESULT:      -4.2     12.222     13.842
REMARK  0 active torsions:
REMARK  status: ('A' for Active; 'I' for Inactive)
ROOT
HETATM    1  C1  UNL     1     -33.661  13.863  -3.749  1.00 20.00     0.001 A 
HETATM    2  C2  UNL     1     -33.076  15.129  -3.659  1.00 20.00     0.003 A 
HETATM    3  C3  UNL     1     -34.428  13.501  -4.865  1.00 20.00     0.014 A 
HETATM    4  C4  UNL     1     -33.234  16.076  -4.674  1.00 20.00     0.038 A 
HETATM    5  C5  UNL     1     -35.277  14.461  -7.147  1.00 20.00     0.039 A 
HETATM    6  C6  UNL     1     -35.049  15.704  -7.689  1.00 20.00     0.143 A 
HETATM    7  C7  UNL     1     -34.601  14.437  -5.899  1.00 20.00    -0.001 A 
HETATM    8  C8  UNL     1     -34.002  15.686  -5.771  1.00 20.00     0.085 A 
HETATM    9  O9  UNL     1     -34.277  16.455  -6.861  1.00 20.00    -0.322 OA
ENDROOT
TORSDOF 0
ENDMDL
