MODEL 1
REMARK VINA RESULT:      -5.2      0.000      0.000
REMARK  0 active torsions:
REMARK  status: ('A' for Active; 'I' for Inactive)
ROOT
HETATM    1  C1  UNL     1     -34.343   5.590   6.431  1.00 20.00     0.000 A 
HETATM    2  C2  UNL     1     -35.060   4.497   5.943  1.00 20.00     0.000 A 
HETATM    3  C3  UNL     1     -33.824   6.535   5.546  1.00 20.00     0.000 A 
HETATM    4  C4  UNL     1     -35.257   4.350   4.570  1.00 20.00     0.000 A 
HETATM    5  C5  UNL     1     -34.021   6.387   4.173  1.00 20.00     0.000 A 
HETATM    6  C6  UNL     1     -34.738   5.294   3.685  1.00 20.00     0.000 A 
ENDROOT
TORSDOF 0
ENDMDL
MODEL 2
REMARK VINA RESULT:      -5.2      0.006      1.973
REMARK  0 active torsions:
REMARK  status: ('A' for Active; 'I' for Inactive)
ROOT
HETATM    1  C1  UNL     1     -34.346   5.597   6.431  1.00 20.00     0.000 A 
HETATM    2  C2  UNL     1     -33.824   6.539   5.544  1.00 20.00     0.000 A 
HETATM    3  C3  UNL     1     -35.061   4.502   5.945  1.00 20.00     0.000 A 
HETATM    4  C4  UNL     1     -34.017   6.386   4.171  1.00 20.00     0.000 A 
HETATM    5  C5  UNL     1     -35.253   4.349   4.571  1.00 20.00     0.000 A 
HETATM    6  C6  UNL     1     -34.731   5.291   3.684  1.00 20.00     0.000 A 
ENDROOT
TORSDOF 0
ENDMDL
MODEL 3
REMARK VINA RESULT:      -5.2      0.007      1.973
REMARK  0 active torsions:
REMARK  status: ('A' for Active; 'I' for Inactive)
ROOT
HETATM    1  C1  UNL     1     -35.054   4.502   5.946  1.00 20.00     0.000 A 
HETATM    2  C2  UNL     1     -34.339   5.598   6.429  1.00 20.00     0.000 A 
HETATM    3  C3  UNL     1     -35.253   4.347   4.574  1.00 20.00     0.000 A 
HETATM    4  C4  UNL     1     -33.823   6.540   5.539  1.00 20.00     0.000 A 
HETATM    5  C5  UNL     1     -34.736   5.291   3.684  1.00 20.00     0.000 A 
HETATM    6  C6  UNL     1     -34.021   6.387   4.167  1.00 20.00     0.000 A 
ENDROOT
TORSDOF 0
ENDMDL
MODEL 4
REMARK VINA RESULT:      -5.2      0.062      1.974
REMARK  0 active torsions:
REMARK  status: ('A' for Active; 'I' for Inactive)
ROOT
HETATM    1  C1  UNL     1     -34.049   6.377   4.229  1.00 20.00     0.000 A 
HETATM    2  C2  UNL     1     -34.750   5.275   3.737  1.00 20.00     0.000 A 
HETATM    3  C3  UNL     1     -33.844   6.516   5.602  1.00 20.00     0.000 A 
HETATM    4  C4  UNL     1     -35.246   4.314   4.617  1.00 20.00     0.000 A 
HETATM    5  C5  UNL     1     -34.340   5.554   6.482  1.00 20.00     0.000 A 
HETATM    6  C6  UNL     1     -35.040   4.453   5.990  1.00 20.00     0.000 A 
ENDROOT
TORSDOF 0
ENDMDL
MODEL 5
REMARK VINA RESULT:      -5.2      0.036      1.371
REMARK  0 active torsions:
REMARK  status: ('A' for Active; 'I' for Inactive)
ROOT
HETATM    1  C1  UNL     1     -33.843   6.516   5.586  1.00 20.00     0.000 A 
HETATM    2  C2  UNL     1     -34.366   5.553   6.449  1.00 20.00     0.000 A 
HETATM    3  C3  UNL     1     -34.021   6.390   4.209  1.00 20.00     0.000 A 
HETATM    4  C4  UNL     1     -35.067   4.463   5.935  1.00 20.00     0.000 A 
HETATM    5  C5  UNL     1     -34.723   5.299   3.694  1.00 20.00     0.000 A 
HETATM    6  C6  UNL     1     -35.246   4.336   4.557  1.00 20.00     0.000 A 
ENDROOT
TORSDOF 0
ENDMDL
MODEL 6
REMARK VINA RESULT:      -5.2      0.057      2.790
REMARK  0 active torsions:
REMARK  status: ('A' for Active; 'I' for Inactive)
ROOT
HETATM    1  C1  UNL     1     -34.744   5.361   3.702  1.00 20.00     0.000 A 
HETATM    2  C2  UNL     1     -34.013   6.425   4.231  1.00 20.00     0.000 A 
HETATM    3  C3  UNL     1     -35.274   4.388   4.551  1.00 20.00     0.000 A 
HETATM    4  C4  UNL     1     -33.810   6.516   5.608  1.00 20.00     0.000 A 
HETATM    5  C5  UNL     1     -35.071   4.480   5.928  1.00 20.00     0.000 A 
HETATM    6  C6  UNL     1     -34.340   5.544   6.457  1.00 20.00     0.000 A 
ENDROOT
TORSDOF 0
ENDMDL
MODEL 7
REMARK VINA RESULT:      -5.2      0.085      2.456
REMARK  0 active torsions:
REMARK  status: ('A' for Active; 'I' for Inactive)
ROOT
HETATM    1  C1  UNL     1     -35.252   4.402   4.488  1.00 20.00     0.000 A 
HETATM    2  C2  UNL     1     -34.681   5.373   3.665  1.00 20.00     0.000 A 
HETATM    3  C3  UNL     1     -35.103   4.485   5.873  1.00 20.00     0.000 A 
HETATM    4  C4  UNL     1     -33.958   6.426   4.227  1.00 20.00     0.000 A 
HETATM    5  C5  UNL     1     -34.380   5.539   6.434  1.00 20.00     0.000 A 
HETATM    6  C6  UNL     1     -33.808   6.509   5.611  1.00 20.00     0.000 A 
ENDROOT
TORSDOF 0
ENDMDL
MODEL 8
REMARK VINA RESULT:      -5.2      0.075      1.973
REMARK  0 active torsions:
REMARK  status: ('A' for Active; 'I' for Inactive)
ROOT
HETATM    1  C1  UNL     1     -35.272   4.373   4.492  1.00 20.00     0.000 A 
HETATM    2  C2  UNL     1     -35.097   4.451   5.874  1.00 20.00     0.000 A 
HETATM    3  C3  UNL     1     -34.726   5.352   3.663  1.00 20.00     0.000 A 
HETATM    4  C4  UNL     1     -34.377   5.511   6.426  1.00 20.00     0.000 A 
HETATM    5  C5  UNL     1     -34.005   6.412   4.216  1.00 20.00     0.000 A 
HETATM    6  C6  UNL     1     -33.830   6.490   5.597  1.00 20.00     0.000 A 
ENDROOT
TORSDOF 0
ENDMDL
MODEL 9
REMARK VINA RESULT:      -3.5      8.512      9.598
REMARK  0 active torsions:
REMARK  status: ('A' for Active; 'I' for Inactive)
ROOT
HETATM    1  C1  UNL     1     -41.208   7.158  -0.930  1.00 20.00     0.000 A 
HETATM    2  C2  UNL     1     -42.005   6.923  -2.051  1.00 20.00     0.000 A 
HETATM    3  C3  UNL     1     -40.616   6.088  -0.259  1.00 20.00     0.000 A 
HETATM    4  C4  UNL     1     -42.210   5.619  -2.500  1.00 20.00     0.000 A 
HETATM    5  C5  UNL     1     -40.821   4.783  -0.709  1.00 20.00     0.000 A 
HETATM    6  C6  UNL     1     -41.618   4.549  -1.830  1.00 20.00     0.000 A 
ENDROOT
TORSDOF 0
ENDMDL
