MODEL 1
REMARK VINA RESULT:      -4.9      0.000      0.000
REMARK  2 active torsions:
REMARK  status: ('A' for Active; 'I' for Inactive)
REMARK    1  A    between atoms: C6_6  and  C7_7 
REMARK    2  A    between atoms: C7_7  and  S8_8 
ROOT
HETATM    1  C1  UNL     1     -35.108   4.736   6.198  1.00 20.00     0.000 A 
HETATM    2  C2  UNL     1     -35.319   4.303   4.890  1.00 20.00     0.001 A 
HETATM    3  C3  UNL     1     -34.301   5.847   6.443  1.00 20.00     0.001 A 
HETATM    4  C4  UNL     1     -34.723   4.980   3.825  1.00 20.00     0.008 A 
HETATM    5  C5  UNL     1     -33.705   6.523   5.379  1.00 20.00     0.008 A 
HETATM    6  C6  UNL     1     -33.916   6.091   4.071  1.00 20.00    -0.049 A 
ENDROOT
BRANCH   6   7
HETATM    7  C7  UNL     1     -33.280   6.815   2.933  1.00 20.00     0.109 C 
BRANCH   7   8
HETATM    8  S8  UNL     1     -31.642   7.482   3.362  1.00 20.00    -0.178 SA
HETATM    9  H16 UNL     1     -31.961   8.768   3.165  1.00 20.00     0.101 HD
ENDBRANCH   7   8
ENDBRANCH   6   7
TORSDOF 2
ENDMDL
MODEL 2
REMARK VINA RESULT:      -4.9      0.002      1.708
REMARK  2 active torsions:
REMARK  status: ('A' for Active; 'I' for Inactive)
REMARK    1  A    between atoms: C6_6  and  C7_7 
REMARK    2  A    between atoms: C7_7  and  S8_8 
ROOT
HETATM    1  C1  UNL     1     -35.109   4.736   6.197  1.00 20.00     0.000 A 
HETATM    2  C2  UNL     1     -34.301   5.845   6.442  1.00 20.00     0.001 A 
HETATM    3  C3  UNL     1     -35.321   4.303   4.889  1.00 20.00     0.001 A 
HETATM    4  C4  UNL     1     -33.705   6.523   5.378  1.00 20.00     0.008 A 
HETATM    5  C5  UNL     1     -34.726   4.980   3.825  1.00 20.00     0.008 A 
HETATM    6  C6  UNL     1     -33.918   6.090   4.070  1.00 20.00    -0.049 A 
ENDROOT
BRANCH   6   7
HETATM    7  C7  UNL     1     -33.280   6.814   2.932  1.00 20.00     0.109 C 
BRANCH   7   8
HETATM    8  S8  UNL     1     -31.642   7.478   3.361  1.00 20.00    -0.178 SA
HETATM    9  H16 UNL     1     -31.232   7.662   2.099  1.00 20.00     0.101 HD
ENDBRANCH   7   8
ENDBRANCH   6   7
TORSDOF 2
ENDMDL
MODEL 3
REMARK VINA RESULT:      -3.8     12.009     12.374
REMARK  2 active torsions:
REMARK  status: ('A' for Active; 'I' for Inactive)
REMARK    1  A    between atoms: C6_6  and  C7_7 
REMARK    2  A    between atoms: C7_7  and  S8_8 
ROOT
HETATM    1  C1  UNL     1     -35.188  13.466  -4.396  1.00 20.00     0.000 A 
HETATM    2  C2  UNL     1     -33.819  13.646  -4.206  1.00 20.00     0.001 A 
HETATM    3  C3  UNL     1     -36.094  14.364  -3.831  1.00 20.00     0.001 A 
HETATM    4  C4  UNL     1     -33.354  14.723  -3.450  1.00 20.00     0.008 A 
HETATM    5  C5  UNL     1     -35.630  15.439  -3.075  1.00 20.00     0.008 A 
HETATM    6  C6  UNL     1     -34.261  15.619  -2.885  1.00 20.00    -0.049 A 
ENDROOT
BRANCH   6   7
HETATM    7  C7  UNL     1     -33.765  16.771  -2.076  1.00 20.00     0.109 C 
BRANCH   7   8
HETATM    8  S8  UNL     1     -34.692  16.984  -0.526  1.00 20.00    -0.178 SA
HETATM    9  H16 UNL     1     -33.647  16.791   0.289  1.00 20.00     0.101 HD
ENDBRANCH   7   8
ENDBRANCH   6   7
TORSDOF 2
ENDMDL
MODEL 4
REMARK VINA RESULT:      -3.8     12.023     12.364
REMARK  2 active torsions:
REMARK  status: ('A' for Active; 'I' for Inactive)
REMARK    1  A    between atoms: C6_6  and  C7_7 
REMARK    2  A    between atoms: C7_7  and  S8_8 
ROOT
HETATM    1  C1  UNL     1     -35.200  13.475  -4.399  1.00 20.00     0.000 A 
HETATM    2  C2  UNL     1     -36.103  14.364  -3.817  1.00 20.00     0.001 A 
HETATM    3  C3  UNL     1     -33.829  13.658  -4.221  1.00 20.00     0.001 A 
HETATM    4  C4  UNL     1     -35.635  15.437  -3.058  1.00 20.00     0.008 A 
HETATM    5  C5  UNL     1     -33.361  14.731  -3.463  1.00 20.00     0.008 A 
HETATM    6  C6  UNL     1     -34.264  15.619  -2.881  1.00 20.00    -0.049 A 
ENDROOT
BRANCH   6   7
HETATM    7  C7  UNL     1     -33.764  16.766  -2.068  1.00 20.00     0.109 C 
BRANCH   7   8
HETATM    8  S8  UNL     1     -34.706  16.991  -0.528  1.00 20.00    -0.178 SA
HETATM    9  H16 UNL     1     -35.748  17.615  -1.093  1.00 20.00     0.101 HD
ENDBRANCH   7   8
ENDBRANCH   6   7
TORSDOF 2
ENDMDL
MODEL 5
REMARK VINA RESULT:      -3.8      9.693     10.598
REMARK  2 active torsions:
REMARK  status: ('A' for Active; 'I' for Inactive)
REMARK    1  A    between atoms: C6_6  and  C7_7 
REMARK    2  A    between atoms: C7_7  and  S8_8 
ROOT
HETATM    1  C1  UNL     1     -41.216   7.183  -0.878  1.00 20.00     0.000 A 
HETATM    2  C2  UNL     1     -40.626   6.058  -0.303  1.00 20.00     0.001 A 
HETATM    3  C3  UNL     1     -42.014   7.048  -2.014  1.00 20.00     0.001 A 
HETATM    4  C4  UNL     1     -40.832   4.798  -0.864  1.00 20.00     0.008 A 
HETATM    5  C5  UNL     1     -42.220   5.788  -2.575  1.00 20.00     0.008 A 
HETATM    6  C6  UNL     1     -41.630   4.663  -2.000  1.00 20.00    -0.049 A 
ENDROOT
BRANCH   6   7
HETATM    7  C7  UNL     1     -41.851   3.315  -2.600  1.00 20.00     0.109 C 
BRANCH   7   8
HETATM    8  S8  UNL     1     -43.406   3.219  -3.539  1.00 20.00    -0.178 SA
HETATM    9  H16 UNL     1     -43.826   4.455  -3.239  1.00 20.00     0.101 HD
ENDBRANCH   7   8
ENDBRANCH   6   7
TORSDOF 2
ENDMDL
MODEL 6
REMARK VINA RESULT:      -3.8      9.707     10.554
REMARK  2 active torsions:
REMARK  status: ('A' for Active; 'I' for Inactive)
REMARK    1  A    between atoms: C6_6  and  C7_7 
REMARK    2  A    between atoms: C7_7  and  S8_8 
ROOT
HETATM    1  C1  UNL     1     -41.224   7.131  -0.886  1.00 20.00     0.000 A 
HETATM    2  C2  UNL     1     -42.034   7.000  -2.013  1.00 20.00     0.001 A 
HETATM    3  C3  UNL     1     -40.615   6.006  -0.331  1.00 20.00     0.001 A 
HETATM    4  C4  UNL     1     -42.237   5.744  -2.585  1.00 20.00     0.008 A 
HETATM    5  C5  UNL     1     -40.817   4.750  -0.902  1.00 20.00     0.008 A 
HETATM    6  C6  UNL     1     -41.628   4.619  -2.029  1.00 20.00    -0.049 A 
ENDROOT
BRANCH   6   7
HETATM    7  C7  UNL     1     -41.844   3.276  -2.640  1.00 20.00     0.109 C 
BRANCH   7   8
HETATM    8  S8  UNL     1     -43.417   3.170  -3.547  1.00 20.00    -0.178 SA
HETATM    9  H16 UNL     1     -42.875   3.216  -4.771  1.00 20.00     0.101 HD
ENDBRANCH   7   8
ENDBRANCH   6   7
TORSDOF 2
ENDMDL
MODEL 7
REMARK VINA RESULT:      -3.7      9.709     10.524
REMARK  2 active torsions:
REMARK  status: ('A' for Active; 'I' for Inactive)
REMARK    1  A    between atoms: C6_6  and  C7_7 
REMARK    2  A    between atoms: C7_7  and  S8_8 
ROOT
HETATM    1  C1  UNL     1     -40.767   4.835  -0.841  1.00 20.00     0.000 A 
HETATM    2  C2  UNL     1     -40.641   6.130  -0.339  1.00 20.00     0.001 A 
HETATM    3  C3  UNL     1     -41.618   4.585  -1.917  1.00 20.00     0.001 A 
HETATM    4  C4  UNL     1     -41.366   7.175  -0.912  1.00 20.00     0.008 A 
HETATM    5  C5  UNL     1     -42.344   5.629  -2.489  1.00 20.00     0.008 A 
HETATM    6  C6  UNL     1     -42.218   6.923  -1.987  1.00 20.00    -0.049 A 
ENDROOT
BRANCH   6   7
HETATM    7  C7  UNL     1     -42.994   8.041  -2.600  1.00 20.00     0.109 C 
BRANCH   7   8
HETATM    8  S8  UNL     1     -42.546   8.326  -4.339  1.00 20.00    -0.178 SA
HETATM    9  H16 UNL     1     -41.452   7.554  -4.330  1.00 20.00     0.101 HD
ENDBRANCH   7   8
ENDBRANCH   6   7
TORSDOF 2
ENDMDL
MODEL 8
REMARK VINA RESULT:      -3.6     12.348     13.719
REMARK  2 active torsions:
REMARK  status: ('A' for Active; 'I' for Inactive)
REMARK    1  A    between atoms: C6_6  and  C7_7 
REMARK    2  A    between atoms: C7_7  and  S8_8 
ROOT
HETATM    1  C1  UNL     1     -33.068  15.065  -3.654  1.00 20.00     0.000 A 
HETATM    2  C2  UNL     1     -33.695  13.834  -3.842  1.00 20.00     0.001 A 
HETATM    3  C3  UNL     1     -33.203  16.069  -4.613  1.00 20.00     0.001 A 
HETATM    4  C4  UNL     1     -34.457  13.606  -4.988  1.00 20.00     0.008 A 
HETATM    5  C5  UNL     1     -33.964  15.841  -5.759  1.00 20.00     0.008 A 
HETATM    6  C6  UNL     1     -34.591  14.610  -5.946  1.00 20.00    -0.049 A 
ENDROOT
BRANCH   6   7
HETATM    7  C7  UNL     1     -35.406  14.367  -7.172  1.00 20.00     0.109 C 
BRANCH   7   8
HETATM    8  S8  UNL     1     -36.977  15.284  -7.156  1.00 20.00    -0.178 SA
HETATM    9  H16 UNL     1     -36.581  16.252  -7.993  1.00 20.00     0.101 HD
ENDBRANCH   7   8
ENDBRANCH   6   7
TORSDOF 2
ENDMDL
MODEL 9
REMARK VINA RESULT:      -3.5     12.373     13.812
REMARK  2 active torsions:
REMARK  status: ('A' for Active; 'I' for Inactive)
REMARK    1  A    between atoms: C6_6  and  C7_7 
REMARK    2  A    between atoms: C7_7  and  S8_8 
ROOT
HETATM    1  C1  UNL     1     -33.594  13.771  -3.802  1.00 20.00     0.000 A 
HETATM    2  C2  UNL     1     -34.425  13.501  -4.888  1.00 20.00     0.001 A 
HETATM    3  C3  UNL     1     -33.017  15.033  -3.663  1.00 20.00     0.001 A 
HETATM    4  C4  UNL     1     -34.678  14.491  -5.838  1.00 20.00     0.008 A 
HETATM    5  C5  UNL     1     -33.270  16.024  -4.612  1.00 20.00     0.008 A 
HETATM    6  C6  UNL     1     -34.100  15.753  -5.699  1.00 20.00    -0.049 A 
ENDROOT
BRANCH   6   7
HETATM    7  C7  UNL     1     -34.372  16.812  -6.713  1.00 20.00     0.109 C 
BRANCH   7   8
HETATM    8  S8  UNL     1     -33.890  18.468  -6.135  1.00 20.00    -0.178 SA
HETATM    9  H16 UNL     1     -34.858  18.581  -5.215  1.00 20.00     0.101 HD
ENDBRANCH   7   8
ENDBRANCH   6   7
TORSDOF 2
ENDMDL
