MODEL 1
REMARK VINA RESULT:      -5.7      0.000      0.000
REMARK  3 active torsions:
REMARK  status: ('A' for Active; 'I' for Inactive)
REMARK    1  A    between atoms: C6_6  and  O9_9 
REMARK    2  A    between atoms: C7_7  and  C8_8 
REMARK    3  A    between atoms: C7_7  and  O9_9 
ROOT
HETATM    1  C1  UNL     1     -34.930   5.003   6.213  1.00 20.00     0.000 A 
HETATM    2  C2  UNL     1     -35.236   4.469   4.962  1.00 20.00     0.003 A 
HETATM    3  C3  UNL     1     -34.086   6.110   6.312  1.00 20.00     0.003 A 
HETATM    4  C4  UNL     1     -34.699   5.040   3.809  1.00 20.00     0.037 A 
HETATM    5  C5  UNL     1     -33.549   6.682   5.158  1.00 20.00     0.037 A 
HETATM    6  C6  UNL     1     -33.856   6.147   3.907  1.00 20.00     0.068 A 
ENDROOT
BRANCH   6   7
HETATM    7  O9  UNL     1     -33.330   6.704   2.781  1.00 20.00    -0.350 OA
BRANCH   7   8
HETATM    8  C7  UNL     1     -32.151   7.491   2.935  1.00 20.00     0.190 C 
BRANCH   8   9
HETATM    9  C8  UNL     1     -31.885   8.270   1.660  1.00 20.00     0.141 C 
HETATM   10 CL10 UNL     1     -32.594   9.902   1.755  1.00 20.00    -0.128 Cl
ENDBRANCH   8   9
ENDBRANCH   7   8
ENDBRANCH   6   7
TORSDOF 3
ENDMDL
MODEL 2
REMARK VINA RESULT:      -5.7      0.025      1.528
REMARK  3 active torsions:
REMARK  status: ('A' for Active; 'I' for Inactive)
REMARK    1  A    between atoms: C6_6  and  O9_9 
REMARK    2  A    between atoms: C7_7  and  C8_8 
REMARK    3  A    between atoms: C7_7  and  O9_9 
ROOT
HETATM    1  C1  UNL     1     -34.947   5.028   6.214  1.00 20.00     0.000 A 
HETATM    2  C2  UNL     1     -34.118   6.145   6.311  1.00 20.00     0.003 A 
HETATM    3  C3  UNL     1     -35.227   4.473   4.965  1.00 20.00     0.003 A 
HETATM    4  C4  UNL     1     -33.569   6.708   5.159  1.00 20.00     0.037 A 
HETATM    5  C5  UNL     1     -34.679   5.037   3.813  1.00 20.00     0.037 A 
HETATM    6  C6  UNL     1     -33.849   6.153   3.910  1.00 20.00     0.068 A 
ENDROOT
BRANCH   6   7
HETATM    7  O9  UNL     1     -33.315   6.704   2.786  1.00 20.00    -0.350 OA
BRANCH   7   8
HETATM    8  C7  UNL     1     -32.144   7.503   2.947  1.00 20.00     0.190 C 
BRANCH   8   9
HETATM    9  C8  UNL     1     -31.873   8.278   1.670  1.00 20.00     0.141 C 
HETATM   10 CL10 UNL     1     -32.617   9.896   1.741  1.00 20.00    -0.128 Cl
ENDBRANCH   8   9
ENDBRANCH   7   8
ENDBRANCH   6   7
TORSDOF 3
ENDMDL
MODEL 3
REMARK VINA RESULT:      -4.1     10.043     11.168
REMARK  3 active torsions:
REMARK  status: ('A' for Active; 'I' for Inactive)
REMARK    1  A    between atoms: C6_6  and  O9_9 
REMARK    2  A    between atoms: C7_7  and  C8_8 
REMARK    3  A    between atoms: C7_7  and  O9_9 
ROOT
HETATM    1  C1  UNL     1     -41.076   7.094  -0.821  1.00 20.00     0.000 A 
HETATM    2  C2  UNL     1     -41.950   7.324  -1.883  1.00 20.00     0.003 A 
HETATM    3  C3  UNL     1     -40.688   5.791  -0.506  1.00 20.00     0.003 A 
HETATM    4  C4  UNL     1     -42.436   6.252  -2.631  1.00 20.00     0.037 A 
HETATM    5  C5  UNL     1     -41.175   4.719  -1.253  1.00 20.00     0.037 A 
HETATM    6  C6  UNL     1     -42.048   4.949  -2.316  1.00 20.00     0.068 A 
ENDROOT
BRANCH   6   7
HETATM    7  O9  UNL     1     -42.524   3.903  -3.045  1.00 20.00    -0.350 OA
BRANCH   7   8
HETATM    8  C7  UNL     1     -43.007   2.773  -2.321  1.00 20.00     0.190 C 
BRANCH   8   9
HETATM    9  C8  UNL     1     -42.653   1.498  -3.065  1.00 20.00     0.141 C 
HETATM   10 CL10 UNL     1     -41.169   1.717  -4.026  1.00 20.00    -0.128 Cl
ENDBRANCH   8   9
ENDBRANCH   7   8
ENDBRANCH   6   7
TORSDOF 3
ENDMDL
MODEL 4
REMARK VINA RESULT:      -4.1     11.119     12.113
REMARK  3 active torsions:
REMARK  status: ('A' for Active; 'I' for Inactive)
REMARK    1  A    between atoms: C6_6  and  O9_9 
REMARK    2  A    between atoms: C7_7  and  C8_8 
REMARK    3  A    between atoms: C7_7  and  O9_9 
ROOT
HETATM    1  C1  UNL     1     -34.816  13.420  -4.108  1.00 20.00     0.000 A 
HETATM    2  C2  UNL     1     -35.715  14.477  -4.248  1.00 20.00     0.003 A 
HETATM    3  C3  UNL     1     -33.477  13.678  -3.812  1.00 20.00     0.003 A 
HETATM    4  C4  UNL     1     -35.277  15.792  -4.093  1.00 20.00     0.037 A 
HETATM    5  C5  UNL     1     -33.038  14.993  -3.658  1.00 20.00     0.037 A 
HETATM    6  C6  UNL     1     -33.938  16.049  -3.797  1.00 20.00     0.068 A 
ENDROOT
BRANCH   6   7
HETATM    7  O9  UNL     1     -33.509  17.333  -3.648  1.00 20.00    -0.350 OA
BRANCH   7   8
HETATM    8  C7  UNL     1     -34.173  18.129  -2.668  1.00 20.00     0.190 C 
BRANCH   8   9
HETATM    9  C8  UNL     1     -33.615  17.818  -1.292  1.00 20.00     0.141 C 
HETATM   10 CL10 UNL     1     -34.709  16.735  -0.395  1.00 20.00    -0.128 Cl
ENDBRANCH   8   9
ENDBRANCH   7   8
ENDBRANCH   6   7
TORSDOF 3
ENDMDL
MODEL 5
REMARK VINA RESULT:      -4.1     11.113     12.169
REMARK  3 active torsions:
REMARK  status: ('A' for Active; 'I' for Inactive)
REMARK    1  A    between atoms: C6_6  and  O9_9 
REMARK    2  A    between atoms: C7_7  and  C8_8 
REMARK    3  A    between atoms: C7_7  and  O9_9 
ROOT
HETATM    1  C1  UNL     1     -34.756  13.361  -4.187  1.00 20.00     0.000 A 
HETATM    2  C2  UNL     1     -33.438  13.639  -3.824  1.00 20.00     0.003 A 
HETATM    3  C3  UNL     1     -35.655  14.406  -4.404  1.00 20.00     0.003 A 
HETATM    4  C4  UNL     1     -33.018  14.960  -3.677  1.00 20.00     0.037 A 
HETATM    5  C5  UNL     1     -35.235  15.728  -4.257  1.00 20.00     0.037 A 
HETATM    6  C6  UNL     1     -33.917  16.005  -3.894  1.00 20.00     0.068 A 
ENDROOT
BRANCH   6   7
HETATM    7  O9  UNL     1     -33.508  17.295  -3.750  1.00 20.00    -0.350 OA
BRANCH   7   8
HETATM    8  C7  UNL     1     -34.207  18.097  -2.799  1.00 20.00     0.190 C 
BRANCH   8   9
HETATM    9  C8  UNL     1     -33.665  17.830  -1.407  1.00 20.00     0.141 C 
HETATM   10 CL10 UNL     1     -34.678  16.642  -0.549  1.00 20.00    -0.128 Cl
ENDBRANCH   8   9
ENDBRANCH   7   8
ENDBRANCH   6   7
TORSDOF 3
ENDMDL
MODEL 6
REMARK VINA RESULT:      -4.0     11.064     12.148
REMARK  3 active torsions:
REMARK  status: ('A' for Active; 'I' for Inactive)
REMARK    1  A    between atoms: C6_6  and  O9_9 
REMARK    2  A    between atoms: C7_7  and  C8_8 
REMARK    3  A    between atoms: C7_7  and  O9_9 
ROOT
HETATM    1  C1  UNL     1     -34.816  13.824  -5.881  1.00 20.00     0.000 A 
HETATM    2  C2  UNL     1     -34.821  13.284  -4.596  1.00 20.00     0.003 A 
HETATM    3  C3  UNL     1     -34.432  15.151  -6.079  1.00 20.00     0.003 A 
HETATM    4  C4  UNL     1     -34.443  14.069  -3.507  1.00 20.00     0.037 A 
HETATM    5  C5  UNL     1     -34.054  15.937  -4.990  1.00 20.00     0.037 A 
HETATM    6  C6  UNL     1     -34.059  15.395  -3.704  1.00 20.00     0.068 A 
ENDROOT
BRANCH   6   7
HETATM    7  O9  UNL     1     -33.692  16.162  -2.641  1.00 20.00    -0.350 OA
BRANCH   7   8
HETATM    8  C7  UNL     1     -34.646  16.319  -1.592  1.00 20.00     0.190 C 
BRANCH   8   9
HETATM    9  C8  UNL     1     -34.139  17.336  -0.586  1.00 20.00     0.141 C 
HETATM   10 CL10 UNL     1     -35.188  17.379   0.854  1.00 20.00    -0.128 Cl
ENDBRANCH   8   9
ENDBRANCH   7   8
ENDBRANCH   6   7
TORSDOF 3
ENDMDL
MODEL 7
REMARK VINA RESULT:      -4.0     11.501     12.042
REMARK  3 active torsions:
REMARK  status: ('A' for Active; 'I' for Inactive)
REMARK    1  A    between atoms: C6_6  and  O9_9 
REMARK    2  A    between atoms: C7_7  and  C8_8 
REMARK    3  A    between atoms: C7_7  and  O9_9 
ROOT
HETATM    1  C1  UNL     1     -34.217  18.366   1.556  1.00 20.00     0.000 A 
HETATM    2  C2  UNL     1     -33.141  18.900   0.846  1.00 20.00     0.003 A 
HETATM    3  C3  UNL     1     -35.051  17.423   0.953  1.00 20.00     0.003 A 
HETATM    4  C4  UNL     1     -32.899  18.493  -0.466  1.00 20.00     0.037 A 
HETATM    5  C5  UNL     1     -34.810  17.017  -0.360  1.00 20.00     0.037 A 
HETATM    6  C6  UNL     1     -33.734  17.551  -1.068  1.00 20.00     0.068 A 
ENDROOT
BRANCH   6   7
HETATM    7  O9  UNL     1     -33.499  17.155  -2.349  1.00 20.00    -0.350 OA
BRANCH   7   8
HETATM    8  C7  UNL     1     -34.020  15.888  -2.744  1.00 20.00     0.190 C 
BRANCH   8   9
HETATM    9  C8  UNL     1     -33.106  15.258  -3.779  1.00 20.00     0.141 C 
HETATM   10 CL10 UNL     1     -33.293  13.486  -3.793  1.00 20.00    -0.128 Cl
ENDBRANCH   8   9
ENDBRANCH   7   8
ENDBRANCH   6   7
TORSDOF 3
ENDMDL
MODEL 8
REMARK VINA RESULT:      -3.9     11.445     12.229
REMARK  3 active torsions:
REMARK  status: ('A' for Active; 'I' for Inactive)
REMARK    1  A    between atoms: C6_6  and  O9_9 
REMARK    2  A    between atoms: C7_7  and  C8_8 
REMARK    3  A    between atoms: C7_7  and  O9_9 
ROOT
HETATM    1  C1  UNL     1     -33.382  14.856  -3.526  1.00 20.00     0.000 A 
HETATM    2  C2  UNL     1     -33.805  13.692  -4.166  1.00 20.00     0.003 A 
HETATM    3  C3  UNL     1     -34.322  15.743  -2.998  1.00 20.00     0.003 A 
HETATM    4  C4  UNL     1     -35.166  13.412  -4.279  1.00 20.00     0.037 A 
HETATM    5  C5  UNL     1     -35.684  15.464  -3.112  1.00 20.00     0.037 A 
HETATM    6  C6  UNL     1     -36.106  14.299  -3.752  1.00 20.00     0.068 A 
ENDROOT
BRANCH   6   7
HETATM    7  O9  UNL     1     -37.435  14.027  -3.864  1.00 20.00    -0.350 OA
BRANCH   7   8
HETATM    8  C7  UNL     1     -38.322  15.141  -3.939  1.00 20.00     0.190 C 
BRANCH   8   9
HETATM    9  C8  UNL     1     -39.068  15.114  -5.261  1.00 20.00     0.141 C 
HETATM   10 CL10 UNL     1     -37.976  15.508  -6.613  1.00 20.00    -0.128 Cl
ENDBRANCH   8   9
ENDBRANCH   7   8
ENDBRANCH   6   7
TORSDOF 3
ENDMDL
MODEL 9
REMARK VINA RESULT:      -3.9     11.160     12.255
REMARK  3 active torsions:
REMARK  status: ('A' for Active; 'I' for Inactive)
REMARK    1  A    between atoms: C6_6  and  O9_9 
REMARK    2  A    between atoms: C7_7  and  C8_8 
REMARK    3  A    between atoms: C7_7  and  O9_9 
ROOT
HETATM    1  C1  UNL     1     -33.866  18.289  -0.528  1.00 20.00     0.000 A 
HETATM    2  C2  UNL     1     -33.511  18.726  -1.804  1.00 20.00     0.003 A 
HETATM    3  C3  UNL     1     -34.496  17.055  -0.363  1.00 20.00     0.003 A 
HETATM    4  C4  UNL     1     -33.785  17.930  -2.916  1.00 20.00     0.037 A 
HETATM    5  C5  UNL     1     -34.772  16.259  -1.476  1.00 20.00     0.037 A 
HETATM    6  C6  UNL     1     -34.416  16.696  -2.751  1.00 20.00     0.068 A 
ENDROOT
BRANCH   6   7
HETATM    7  O9  UNL     1     -34.686  15.920  -3.837  1.00 20.00    -0.350 OA
BRANCH   7   8
HETATM    8  C7  UNL     1     -35.627  14.863  -3.662  1.00 20.00     0.190 C 
BRANCH   8   9
HETATM    9  C8  UNL     1     -35.026  13.557  -4.147  1.00 20.00     0.141 C 
HETATM   10 CL10 UNL     1     -33.272  13.512  -3.836  1.00 20.00    -0.128 Cl
ENDBRANCH   8   9
ENDBRANCH   7   8
ENDBRANCH   6   7
TORSDOF 3
ENDMDL
