MODEL 1
REMARK VINA RESULT:      -2.6      0.000      0.000
REMARK  0 active torsions:
REMARK  status: ('A' for Active; 'I' for Inactive)
ROOT
HETATM    1  C1  UNL     1     -34.159   6.230   6.421  1.00 20.00     0.016 C 
HETATM    2  C2  UNL     1     -34.846   5.064   5.750  1.00 20.00     0.081 C 
HETATM    3 BR3  UNL     1     -34.927   5.360   3.830  1.00 20.00    -0.097 Br
ENDROOT
TORSDOF 0
ENDMDL
MODEL 2
REMARK VINA RESULT:      -2.6      2.244      2.260
REMARK  0 active torsions:
REMARK  status: ('A' for Active; 'I' for Inactive)
ROOT
HETATM    1  C1  UNL     1     -33.772   6.012   3.698  1.00 20.00     0.016 C 
HETATM    2  C2  UNL     1     -35.035   5.256   4.037  1.00 20.00     0.081 C 
HETATM    3 BR3  UNL     1     -34.863   4.432   5.790  1.00 20.00    -0.097 Br
ENDROOT
TORSDOF 0
ENDMDL
MODEL 3
REMARK VINA RESULT:      -2.6      1.397      1.541
REMARK  0 active torsions:
REMARK  status: ('A' for Active; 'I' for Inactive)
ROOT
HETATM    1  C1  UNL     1     -34.952   4.539   5.977  1.00 20.00     0.016 C 
HETATM    2  C2  UNL     1     -35.213   4.931   4.542  1.00 20.00     0.081 C 
HETATM    3 BR3  UNL     1     -33.783   6.081   3.899  1.00 20.00    -0.097 Br
ENDROOT
TORSDOF 0
ENDMDL
MODEL 4
REMARK VINA RESULT:      -2.4      2.261      2.563
REMARK  0 active torsions:
REMARK  status: ('A' for Active; 'I' for Inactive)
ROOT
HETATM    1  C1  UNL     1     -35.002   5.386   3.794  1.00 20.00     0.016 C 
HETATM    2  C2  UNL     1     -33.880   6.113   4.496  1.00 20.00     0.081 C 
HETATM    3 BR3  UNL     1     -32.448   6.493   3.237  1.00 20.00    -0.097 Br
ENDROOT
TORSDOF 0
ENDMDL
MODEL 5
REMARK VINA RESULT:      -2.4      2.253      2.324
REMARK  0 active torsions:
REMARK  status: ('A' for Active; 'I' for Inactive)
ROOT
HETATM    1  C1  UNL     1     -33.045   6.161   3.280  1.00 20.00     0.016 C 
HETATM    2  C2  UNL     1     -33.804   6.281   4.580  1.00 20.00     0.081 C 
HETATM    3 BR3  UNL     1     -35.068   4.812   4.746  1.00 20.00    -0.097 Br
ENDROOT
TORSDOF 0
ENDMDL
MODEL 6
REMARK VINA RESULT:      -2.0      3.524      3.600
REMARK  0 active torsions:
REMARK  status: ('A' for Active; 'I' for Inactive)
ROOT
HETATM    1  C1  UNL     1     -33.712   6.112   3.728  1.00 20.00     0.016 C 
HETATM    2  C2  UNL     1     -32.295   6.261   3.227  1.00 20.00     0.081 C 
HETATM    3 BR3  UNL     1     -32.094   7.960   2.304  1.00 20.00    -0.097 Br
ENDROOT
TORSDOF 0
ENDMDL
MODEL 7
REMARK VINA RESULT:      -2.0      4.124      4.286
REMARK  0 active torsions:
REMARK  status: ('A' for Active; 'I' for Inactive)
ROOT
HETATM    1  C1  UNL     1     -32.869   6.229   3.199  1.00 20.00     0.016 C 
HETATM    2  C2  UNL     1     -31.855   7.346   3.268  1.00 20.00     0.081 C 
HETATM    3 BR3  UNL     1     -32.016   8.484   1.700  1.00 20.00    -0.097 Br
ENDROOT
TORSDOF 0
ENDMDL
MODEL 8
REMARK VINA RESULT:      -1.9      5.375      5.472
REMARK  0 active torsions:
REMARK  status: ('A' for Active; 'I' for Inactive)
ROOT
HETATM    1  C1  UNL     1     -32.511   9.774   1.574  1.00 20.00     0.016 C 
HETATM    2  C2  UNL     1     -31.856   8.428   1.373  1.00 20.00     0.081 C 
HETATM    3 BR3  UNL     1     -32.262   7.263   2.876  1.00 20.00    -0.097 Br
ENDROOT
TORSDOF 0
ENDMDL
MODEL 9
REMARK VINA RESULT:      -1.8      8.783      9.061
REMARK  0 active torsions:
REMARK  status: ('A' for Active; 'I' for Inactive)
ROOT
HETATM    1  C1  UNL     1     -41.217   7.271  -0.935  1.00 20.00     0.016 C 
HETATM    2  C2  UNL     1     -40.756   5.969  -0.323  1.00 20.00     0.081 C 
HETATM    3 BR3  UNL     1     -41.219   4.487  -1.493  1.00 20.00    -0.097 Br
ENDROOT
TORSDOF 0
ENDMDL
