MODEL 1
REMARK VINA RESULT:      -5.2      0.000      0.000
REMARK  0 active torsions:
REMARK  status: ('A' for Active; 'I' for Inactive)
ROOT
HETATM    1  C1  UNL     1     -34.295   5.835   6.459  1.00 20.00    -0.030 C 
HETATM    2  C2  UNL     1     -33.763   6.601   5.496  1.00 20.00    -0.030 C 
HETATM    3  C3  UNL     1     -35.125   4.619   6.175  1.00 20.00     0.026 C 
HETATM    4  C4  UNL     1     -33.974   6.341   4.034  1.00 20.00     0.026 C 
HETATM    5  C5  UNL     1     -35.037   4.157   4.718  1.00 20.00     0.004 C 
HETATM    6  C6  UNL     1     -35.097   5.340   3.756  1.00 20.00     0.004 C 
ENDROOT
TORSDOF 0
ENDMDL
MODEL 2
REMARK VINA RESULT:      -5.1      0.057      2.082
REMARK  0 active torsions:
REMARK  status: ('A' for Active; 'I' for Inactive)
ROOT
HETATM    1  C1  UNL     1     -33.711   6.610   5.454  1.00 20.00    -0.030 C 
HETATM    2  C2  UNL     1     -34.260   5.885   6.438  1.00 20.00    -0.030 C 
HETATM    3  C3  UNL     1     -33.938   6.323   3.999  1.00 20.00     0.026 C 
HETATM    4  C4  UNL     1     -35.131   4.690   6.186  1.00 20.00     0.026 C 
HETATM    5  C5  UNL     1     -35.094   5.350   3.751  1.00 20.00     0.004 C 
HETATM    6  C6  UNL     1     -35.064   4.190   4.741  1.00 20.00     0.004 C 
ENDROOT
TORSDOF 0
ENDMDL
MODEL 3
REMARK VINA RESULT:      -5.0      0.555      2.085
REMARK  0 active torsions:
REMARK  status: ('A' for Active; 'I' for Inactive)
ROOT
HETATM    1  C1  UNL     1     -33.671   6.493   4.346  1.00 20.00    -0.030 C 
HETATM    2  C2  UNL     1     -33.730   6.552   5.683  1.00 20.00    -0.030 C 
HETATM    3  C3  UNL     1     -34.399   5.461   3.537  1.00 20.00     0.026 C 
HETATM    4  C4  UNL     1     -34.502   5.568   6.513  1.00 20.00     0.026 C 
HETATM    5  C5  UNL     1     -35.455   4.700   4.343  1.00 20.00     0.004 C 
HETATM    6  C6  UNL     1     -34.934   4.327   5.728  1.00 20.00     0.004 C 
ENDROOT
TORSDOF 0
ENDMDL
MODEL 4
REMARK VINA RESULT:      -5.0      0.580      1.084
REMARK  0 active torsions:
REMARK  status: ('A' for Active; 'I' for Inactive)
ROOT
HETATM    1  C1  UNL     1     -33.714   6.540   5.693  1.00 20.00    -0.030 C 
HETATM    2  C2  UNL     1     -33.643   6.500   4.356  1.00 20.00    -0.030 C 
HETATM    3  C3  UNL     1     -34.510   5.559   6.502  1.00 20.00     0.026 C 
HETATM    4  C4  UNL     1     -34.381   5.491   3.527  1.00 20.00     0.026 C 
HETATM    5  C5  UNL     1     -34.957   4.337   5.696  1.00 20.00     0.004 C 
HETATM    6  C6  UNL     1     -35.459   4.739   4.312  1.00 20.00     0.004 C 
ENDROOT
TORSDOF 0
ENDMDL
MODEL 5
REMARK VINA RESULT:      -5.0      0.518      2.083
REMARK  0 active torsions:
REMARK  status: ('A' for Active; 'I' for Inactive)
ROOT
HETATM    1  C1  UNL     1     -35.060   4.233   5.753  1.00 20.00    -0.030 C 
HETATM    2  C2  UNL     1     -35.273   4.393   4.440  1.00 20.00    -0.030 C 
HETATM    3  C3  UNL     1     -34.262   5.198   6.579  1.00 20.00     0.026 C 
HETATM    4  C4  UNL     1     -34.704   5.537   3.652  1.00 20.00     0.026 C 
HETATM    5  C5  UNL     1     -33.996   6.525   5.864  1.00 20.00     0.004 C 
HETATM    6  C6  UNL     1     -33.612   6.301   4.404  1.00 20.00     0.004 C 
ENDROOT
TORSDOF 0
ENDMDL
MODEL 6
REMARK VINA RESULT:      -5.0      0.555      2.710
REMARK  0 active torsions:
REMARK  status: ('A' for Active; 'I' for Inactive)
ROOT
HETATM    1  C1  UNL     1     -35.285   4.468   4.401  1.00 20.00    -0.030 C 
HETATM    2  C2  UNL     1     -35.099   4.262   5.712  1.00 20.00    -0.030 C 
HETATM    3  C3  UNL     1     -34.681   5.621   3.657  1.00 20.00     0.026 C 
HETATM    4  C4  UNL     1     -34.295   5.186   6.579  1.00 20.00     0.026 C 
HETATM    5  C5  UNL     1     -33.588   6.343   4.450  1.00 20.00     0.004 C 
HETATM    6  C6  UNL     1     -33.993   6.529   5.910  1.00 20.00     0.004 C 
ENDROOT
TORSDOF 0
ENDMDL
MODEL 7
REMARK VINA RESULT:      -4.6      0.354      2.082
REMARK  0 active torsions:
REMARK  status: ('A' for Active; 'I' for Inactive)
ROOT
HETATM    1  C1  UNL     1     -34.668   5.333   3.677  1.00 20.00    -0.030 C 
HETATM    2  C2  UNL     1     -34.097   6.427   4.197  1.00 20.00    -0.030 C 
HETATM    3  C3  UNL     1     -35.152   4.184   4.511  1.00 20.00     0.026 C 
HETATM    4  C4  UNL     1     -33.849   6.602   5.666  1.00 20.00     0.026 C 
HETATM    5  C5  UNL     1     -35.228   4.515   6.004  1.00 20.00     0.004 C 
HETATM    6  C6  UNL     1     -34.003   5.303   6.461  1.00 20.00     0.004 C 
ENDROOT
TORSDOF 0
ENDMDL
MODEL 8
REMARK VINA RESULT:      -4.6      0.333      2.418
REMARK  0 active torsions:
REMARK  status: ('A' for Active; 'I' for Inactive)
ROOT
HETATM    1  C1  UNL     1     -34.085   6.407   4.143  1.00 20.00    -0.030 C 
HETATM    2  C2  UNL     1     -34.662   5.302   3.654  1.00 20.00    -0.030 C 
HETATM    3  C3  UNL     1     -33.835   6.625   5.606  1.00 20.00     0.026 C 
HETATM    4  C4  UNL     1     -35.151   4.181   4.524  1.00 20.00     0.026 C 
HETATM    5  C5  UNL     1     -33.998   5.351   6.440  1.00 20.00     0.004 C 
HETATM    6  C6  UNL     1     -35.227   4.557   6.005  1.00 20.00     0.004 C 
ENDROOT
TORSDOF 0
ENDMDL
MODEL 9
REMARK VINA RESULT:      -3.4      8.400      9.688
REMARK  0 active torsions:
REMARK  status: ('A' for Active; 'I' for Inactive)
ROOT
HETATM    1  C1  UNL     1     -41.174   7.153  -0.923  1.00 20.00    -0.030 C 
HETATM    2  C2  UNL     1     -41.910   7.105  -2.041  1.00 20.00    -0.030 C 
HETATM    3  C3  UNL     1     -40.663   5.928  -0.224  1.00 20.00     0.026 C 
HETATM    4  C4  UNL     1     -42.331   5.820  -2.690  1.00 20.00     0.026 C 
HETATM    5  C5  UNL     1     -40.782   4.659  -1.071  1.00 20.00     0.004 C 
HETATM    6  C6  UNL     1     -42.125   4.597  -1.793  1.00 20.00     0.004 C 
ENDROOT
TORSDOF 0
ENDMDL
