MODEL 1
REMARK VINA RESULT:      -3.5      0.000      0.000
REMARK  3 active torsions:
REMARK  status: ('A' for Active; 'I' for Inactive)
REMARK    1  A    between atoms: C5_5  and  S7_7 
REMARK    2  A    between atoms: C6_6  and  S8_8 
REMARK    3  A    between atoms: S7_7  and  S8_8 
ROOT
HETATM    1  S7  UNL     1     -34.527   5.741   3.714  1.00 20.00    -0.093 SA
ENDROOT
BRANCH   1   2
HETATM    2  C5  UNL     1     -34.092   5.255   5.418  1.00 20.00     0.050 C 
HETATM    3  C1  UNL     1     -34.040   6.492   6.308  1.00 20.00     0.022 C 
HETATM    4  C2  UNL     1     -35.103   4.239   5.936  1.00 20.00     0.022 C 
ENDBRANCH   1   2
BRANCH   1   5
HETATM    5  S8  UNL     1     -32.669   5.895   2.853  1.00 20.00    -0.093 SA
BRANCH   5   6
HETATM    6  C6  UNL     1     -32.322   7.661   3.038  1.00 20.00     0.050 C 
HETATM    7  C3  UNL     1     -31.197   7.862   4.046  1.00 20.00     0.022 C 
HETATM    8  C4  UNL     1     -31.967   8.260   1.681  1.00 20.00     0.022 C 
ENDBRANCH   5   6
ENDBRANCH   1   5
TORSDOF 3
ENDMDL
MODEL 2
REMARK VINA RESULT:      -3.5      0.058      4.433
REMARK  3 active torsions:
REMARK  status: ('A' for Active; 'I' for Inactive)
REMARK    1  A    between atoms: C5_5  and  S7_7 
REMARK    2  A    between atoms: C6_6  and  S8_8 
REMARK    3  A    between atoms: S7_7  and  S8_8 
ROOT
HETATM    1  S7  UNL     1     -32.613   5.886   2.923  1.00 20.00    -0.093 SA
ENDROOT
BRANCH   1   2
HETATM    2  C5  UNL     1     -32.278   7.673   3.065  1.00 20.00     0.050 C 
HETATM    3  C1  UNL     1     -31.128   7.905   4.037  1.00 20.00     0.022 C 
HETATM    4  C2  UNL     1     -31.969   8.250   1.689  1.00 20.00     0.022 C 
ENDBRANCH   1   2
BRANCH   1   5
HETATM    5  S8  UNL     1     -34.488   5.760   3.751  1.00 20.00    -0.093 SA
BRANCH   5   6
HETATM    6  C6  UNL     1     -34.109   5.250   5.445  1.00 20.00     0.050 C 
HETATM    7  C3  UNL     1     -34.056   6.474   6.351  1.00 20.00     0.022 C 
HETATM    8  C4  UNL     1     -35.153   4.247   5.925  1.00 20.00     0.022 C 
ENDBRANCH   5   6
ENDBRANCH   1   5
TORSDOF 3
ENDMDL
MODEL 3
REMARK VINA RESULT:      -3.2     11.653     12.914
REMARK  3 active torsions:
REMARK  status: ('A' for Active; 'I' for Inactive)
REMARK    1  A    between atoms: C5_5  and  S7_7 
REMARK    2  A    between atoms: C6_6  and  S8_8 
REMARK    3  A    between atoms: S7_7  and  S8_8 
ROOT
HETATM    1  S7  UNL     1     -34.891  13.630  -4.913  1.00 20.00    -0.093 SA
ENDROOT
BRANCH   1   2
HETATM    2  C5  UNL     1     -35.387  14.316  -6.530  1.00 20.00     0.050 C 
HETATM    3  C1  UNL     1     -36.654  15.147  -6.369  1.00 20.00     0.022 C 
HETATM    4  C2  UNL     1     -34.247  15.146  -7.107  1.00 20.00     0.022 C 
ENDBRANCH   1   2
BRANCH   1   5
HETATM    5  S8  UNL     1     -35.874  14.889  -3.623  1.00 20.00    -0.093 SA
BRANCH   5   6
HETATM    6  C6  UNL     1     -34.544  16.000  -3.106  1.00 20.00     0.050 C 
HETATM    7  C3  UNL     1     -34.640  16.254  -1.606  1.00 20.00     0.022 C 
HETATM    8  C4  UNL     1     -33.195  15.398  -3.483  1.00 20.00     0.022 C 
ENDBRANCH   5   6
ENDBRANCH   1   5
TORSDOF 3
ENDMDL
MODEL 4
REMARK VINA RESULT:      -3.2     11.657     12.725
REMARK  3 active torsions:
REMARK  status: ('A' for Active; 'I' for Inactive)
REMARK    1  A    between atoms: C5_5  and  S7_7 
REMARK    2  A    between atoms: C6_6  and  S8_8 
REMARK    3  A    between atoms: S7_7  and  S8_8 
ROOT
HETATM    1  S7  UNL     1     -35.892  14.885  -3.629  1.00 20.00    -0.093 SA
ENDROOT
BRANCH   1   2
HETATM    2  C5  UNL     1     -34.545  15.999  -3.108  1.00 20.00     0.050 C 
HETATM    3  C1  UNL     1     -34.637  16.252  -1.608  1.00 20.00     0.022 C 
HETATM    4  C2  UNL     1     -33.200  15.391  -3.488  1.00 20.00     0.022 C 
ENDBRANCH   1   2
BRANCH   1   5
HETATM    5  S8  UNL     1     -34.906  13.640  -4.930  1.00 20.00    -0.093 SA
BRANCH   5   6
HETATM    6  C6  UNL     1     -35.388  14.325  -6.533  1.00 20.00     0.050 C 
HETATM    7  C3  UNL     1     -36.658  15.153  -6.378  1.00 20.00     0.022 C 
HETATM    8  C4  UNL     1     -34.246  15.160  -7.101  1.00 20.00     0.022 C 
ENDBRANCH   5   6
ENDBRANCH   1   5
TORSDOF 3
ENDMDL
MODEL 5
REMARK VINA RESULT:      -3.2     11.315     12.149
REMARK  3 active torsions:
REMARK  status: ('A' for Active; 'I' for Inactive)
REMARK    1  A    between atoms: C5_5  and  S7_7 
REMARK    2  A    between atoms: C6_6  and  S8_8 
REMARK    3  A    between atoms: S7_7  and  S8_8 
ROOT
HETATM    1  S7  UNL     1     -35.301  15.439  -3.163  1.00 20.00    -0.093 SA
ENDROOT
BRANCH   1   2
HETATM    2  C5  UNL     1     -34.264  13.978  -3.506  1.00 20.00     0.050 C 
HETATM    3  C1  UNL     1     -34.771  13.270  -4.757  1.00 20.00     0.022 C 
HETATM    4  C2  UNL     1     -32.809  14.404  -3.660  1.00 20.00     0.022 C 
ENDBRANCH   1   2
BRANCH   1   5
HETATM    5  S8  UNL     1     -33.916  16.951  -3.275  1.00 20.00    -0.093 SA
BRANCH   5   6
HETATM    6  C6  UNL     1     -33.586  17.279  -1.527  1.00 20.00     0.050 C 
HETATM    7  C3  UNL     1     -33.422  18.779  -1.307  1.00 20.00     0.022 C 
HETATM    8  C4  UNL     1     -34.715  16.712  -0.674  1.00 20.00     0.022 C 
ENDBRANCH   5   6
ENDBRANCH   1   5
TORSDOF 3
ENDMDL
MODEL 6
REMARK VINA RESULT:      -3.2     11.621     12.293
REMARK  3 active torsions:
REMARK  status: ('A' for Active; 'I' for Inactive)
REMARK    1  A    between atoms: C5_5  and  S7_7 
REMARK    2  A    between atoms: C6_6  and  S8_8 
REMARK    3  A    between atoms: S7_7  and  S8_8 
ROOT
HETATM    1  S7  UNL     1     -34.239  17.314  -3.077  1.00 20.00    -0.093 SA
ENDROOT
BRANCH   1   2
HETATM    2  C5  UNL     1     -33.643  17.314  -1.353  1.00 20.00     0.050 C 
HETATM    3  C1  UNL     1     -33.147  18.706  -0.980  1.00 20.00     0.022 C 
HETATM    4  C2  UNL     1     -34.760  16.854  -0.423  1.00 20.00     0.022 C 
ENDBRANCH   1   2
BRANCH   1   5
HETATM    5  S8  UNL     1     -33.308  15.643  -3.824  1.00 20.00    -0.093 SA
BRANCH   5   6
HETATM    6  C6  UNL     1     -34.555  14.364  -3.531  1.00 20.00     0.050 C 
HETATM    7  C3  UNL     1     -35.938  15.000  -3.466  1.00 20.00     0.022 C 
HETATM    8  C4  UNL     1     -34.478  13.310  -4.629  1.00 20.00     0.022 C 
ENDBRANCH   5   6
ENDBRANCH   1   5
TORSDOF 3
ENDMDL
MODEL 7
REMARK VINA RESULT:      -3.1     11.537     12.750
REMARK  3 active torsions:
REMARK  status: ('A' for Active; 'I' for Inactive)
REMARK    1  A    between atoms: C5_5  and  S7_7 
REMARK    2  A    between atoms: C6_6  and  S8_8 
REMARK    3  A    between atoms: S7_7  and  S8_8 
ROOT
HETATM    1  S7  UNL     1     -33.146  15.086  -3.701  1.00 20.00    -0.093 SA
ENDROOT
BRANCH   1   2
HETATM    2  C5  UNL     1     -34.140  14.126  -4.892  1.00 20.00     0.050 C 
HETATM    3  C1  UNL     1     -35.345  13.518  -4.184  1.00 20.00     0.022 C 
HETATM    4  C2  UNL     1     -34.569  15.024  -6.046  1.00 20.00     0.022 C 
ENDBRANCH   1   2
BRANCH   1   5
HETATM    5  S8  UNL     1     -33.812  16.993  -4.066  1.00 20.00    -0.093 SA
BRANCH   5   6
HETATM    6  C6  UNL     1     -34.993  17.236  -2.717  1.00 20.00     0.050 C 
HETATM    7  C3  UNL     1     -36.409  16.990  -3.223  1.00 20.00     0.022 C 
HETATM    8  C4  UNL     1     -34.648  16.309  -1.557  1.00 20.00     0.022 C 
ENDBRANCH   5   6
ENDBRANCH   1   5
TORSDOF 3
ENDMDL
MODEL 8
REMARK VINA RESULT:      -3.1     11.702     12.726
REMARK  3 active torsions:
REMARK  status: ('A' for Active; 'I' for Inactive)
REMARK    1  A    between atoms: C5_5  and  S7_7 
REMARK    2  A    between atoms: C6_6  and  S8_8 
REMARK    3  A    between atoms: S7_7  and  S8_8 
ROOT
HETATM    1  S7  UNL     1     -35.749  15.412  -3.185  1.00 20.00    -0.093 SA
ENDROOT
BRANCH   1   2
HETATM    2  C5  UNL     1     -34.279  16.132  -2.380  1.00 20.00     0.050 C 
HETATM    3  C1  UNL     1     -33.762  17.304  -3.205  1.00 20.00     0.022 C 
HETATM    4  C2  UNL     1     -34.629  16.562  -0.960  1.00 20.00     0.022 C 
ENDBRANCH   1   2
BRANCH   1   5
HETATM    5  S8  UNL     1     -35.524  16.088  -5.111  1.00 20.00    -0.093 SA
BRANCH   5   6
HETATM    6  C6  UNL     1     -34.563  14.751  -5.861  1.00 20.00     0.050 C 
HETATM    7  C3  UNL     1     -34.754  13.468  -5.061  1.00 20.00     0.022 C 
HETATM    8  C4  UNL     1     -34.984  14.568  -7.315  1.00 20.00     0.022 C 
ENDBRANCH   5   6
ENDBRANCH   1   5
TORSDOF 3
ENDMDL
MODEL 9
REMARK VINA RESULT:      -3.1     11.702     12.750
REMARK  3 active torsions:
REMARK  status: ('A' for Active; 'I' for Inactive)
REMARK    1  A    between atoms: C5_5  and  S7_7 
REMARK    2  A    between atoms: C6_6  and  S8_8 
REMARK    3  A    between atoms: S7_7  and  S8_8 
ROOT
HETATM    1  S7  UNL     1     -33.296  16.163  -4.544  1.00 20.00    -0.093 SA
ENDROOT
BRANCH   1   2
HETATM    2  C5  UNL     1     -34.003  17.193  -3.215  1.00 20.00     0.050 C 
HETATM    3  C1  UNL     1     -35.313  17.814  -3.688  1.00 20.00     0.022 C 
HETATM    4  C2  UNL     1     -34.208  16.349  -1.963  1.00 20.00     0.022 C 
ENDBRANCH   1   2
BRANCH   1   5
HETATM    5  S8  UNL     1     -33.665  14.274  -3.828  1.00 20.00    -0.093 SA
BRANCH   5   6
HETATM    6  C6  UNL     1     -35.099  13.779  -4.813  1.00 20.00     0.050 C 
HETATM    7  C3  UNL     1     -36.379  14.241  -4.126  1.00 20.00     0.022 C 
HETATM    8  C4  UNL     1     -34.983  14.359  -6.219  1.00 20.00     0.022 C 
ENDBRANCH   5   6
ENDBRANCH   1   5
TORSDOF 3
ENDMDL
