MODEL 1
REMARK VINA RESULT:      -5.9      0.000      0.000
REMARK  1 active torsions:
REMARK  status: ('A' for Active; 'I' for Inactive)
REMARK    1  A    between atoms: C6_6  and  C8_8 
ROOT
HETATM    1  C1  UNL     1     -35.127   4.805   6.078  1.00 20.00     0.000 A 
HETATM    2  C2  UNL     1     -34.300   5.881   6.404  1.00 20.00     0.001 A 
HETATM    3  C3  UNL     1     -35.267   4.412   4.748  1.00 20.00     0.001 A 
HETATM    4  C4  UNL     1     -33.615   6.563   5.399  1.00 20.00     0.007 A 
HETATM    5  C5  UNL     1     -34.583   5.095   3.742  1.00 20.00     0.007 A 
HETATM    6  C6  UNL     1     -33.756   6.170   4.068  1.00 20.00    -0.059 A 
ENDROOT
BRANCH   6   7
HETATM    7  C8  UNL     1     -33.024   6.900   2.992  1.00 20.00     0.034 C 
HETATM    8  C7  UNL     1     -31.669   7.422   3.462  1.00 20.00     0.010 C 
ENDBRANCH   6   7
TORSDOF 1
ENDMDL
MODEL 2
REMARK VINA RESULT:      -5.9      0.013      1.708
REMARK  1 active torsions:
REMARK  status: ('A' for Active; 'I' for Inactive)
REMARK    1  A    between atoms: C6_6  and  C8_8 
ROOT
HETATM    1  C1  UNL     1     -35.121   4.804   6.091  1.00 20.00     0.000 A 
HETATM    2  C2  UNL     1     -35.264   4.403   4.763  1.00 20.00     0.001 A 
HETATM    3  C3  UNL     1     -34.300   5.885   6.409  1.00 20.00     0.001 A 
HETATM    4  C4  UNL     1     -34.582   5.083   3.753  1.00 20.00     0.007 A 
HETATM    5  C5  UNL     1     -33.619   6.564   5.399  1.00 20.00     0.007 A 
HETATM    6  C6  UNL     1     -33.761   6.164   4.071  1.00 20.00    -0.059 A 
ENDROOT
BRANCH   6   7
HETATM    7  C8  UNL     1     -33.032   6.891   2.992  1.00 20.00     0.034 C 
HETATM    8  C7  UNL     1     -31.671   7.406   3.454  1.00 20.00     0.010 C 
ENDBRANCH   6   7
TORSDOF 1
ENDMDL
MODEL 3
REMARK VINA RESULT:      -4.5      0.853      3.334
REMARK  1 active torsions:
REMARK  status: ('A' for Active; 'I' for Inactive)
REMARK    1  A    between atoms: C6_6  and  C8_8 
ROOT
HETATM    1  C1  UNL     1     -32.897   6.222   2.419  1.00 20.00     0.000 A 
HETATM    2  C2  UNL     1     -32.309   6.843   3.521  1.00 20.00     0.001 A 
HETATM    3  C3  UNL     1     -34.042   5.444   2.587  1.00 20.00     0.001 A 
HETATM    4  C4  UNL     1     -32.864   6.685   4.790  1.00 20.00     0.007 A 
HETATM    5  C5  UNL     1     -34.598   5.285   3.857  1.00 20.00     0.007 A 
HETATM    6  C6  UNL     1     -34.010   5.907   4.958  1.00 20.00    -0.059 A 
ENDROOT
BRANCH   6   7
HETATM    7  C8  UNL     1     -34.605   5.737   6.315  1.00 20.00     0.034 C 
HETATM    8  C7  UNL     1     -35.218   4.353   6.512  1.00 20.00     0.010 C 
ENDBRANCH   6   7
TORSDOF 1
ENDMDL
MODEL 4
REMARK VINA RESULT:      -4.5      0.836      3.702
REMARK  1 active torsions:
REMARK  status: ('A' for Active; 'I' for Inactive)
REMARK    1  A    between atoms: C6_6  and  C8_8 
ROOT
HETATM    1  C1  UNL     1     -32.932   6.187   2.404  1.00 20.00     0.000 A 
HETATM    2  C2  UNL     1     -34.045   5.372   2.611  1.00 20.00     0.001 A 
HETATM    3  C3  UNL     1     -32.354   6.864   3.477  1.00 20.00     0.001 A 
HETATM    4  C4  UNL     1     -34.581   5.236   3.892  1.00 20.00     0.007 A 
HETATM    5  C5  UNL     1     -32.889   6.728   4.758  1.00 20.00     0.007 A 
HETATM    6  C6  UNL     1     -34.002   5.913   4.965  1.00 20.00    -0.059 A 
ENDROOT
BRANCH   6   7
HETATM    7  C8  UNL     1     -34.574   5.768   6.335  1.00 20.00     0.034 C 
HETATM    8  C7  UNL     1     -35.200   4.394   6.561  1.00 20.00     0.010 C 
ENDBRANCH   6   7
TORSDOF 1
ENDMDL
MODEL 5
REMARK VINA RESULT:      -4.5      1.275      2.740
REMARK  1 active torsions:
REMARK  status: ('A' for Active; 'I' for Inactive)
REMARK    1  A    between atoms: C6_6  and  C8_8 
ROOT
HETATM    1  C1  UNL     1     -35.277   4.281   4.359  1.00 20.00     0.000 A 
HETATM    2  C2  UNL     1     -34.738   5.380   3.690  1.00 20.00     0.001 A 
HETATM    3  C3  UNL     1     -35.142   4.173   5.743  1.00 20.00     0.001 A 
HETATM    4  C4  UNL     1     -34.062   6.369   4.404  1.00 20.00     0.007 A 
HETATM    5  C5  UNL     1     -34.466   5.162   6.457  1.00 20.00     0.007 A 
HETATM    6  C6  UNL     1     -33.927   6.260   5.788  1.00 20.00    -0.059 A 
ENDROOT
BRANCH   6   7
HETATM    7  C8  UNL     1     -33.204   7.317   6.553  1.00 20.00     0.034 C 
HETATM    8  C7  UNL     1     -34.079   7.961   7.625  1.00 20.00     0.010 C 
ENDBRANCH   6   7
TORSDOF 1
ENDMDL
MODEL 6
REMARK VINA RESULT:      -4.3     11.762     12.234
REMARK  1 active torsions:
REMARK  status: ('A' for Active; 'I' for Inactive)
REMARK    1  A    between atoms: C6_6  and  C8_8 
ROOT
HETATM    1  C1  UNL     1     -35.061  13.360  -4.408  1.00 20.00     0.000 A 
HETATM    2  C2  UNL     1     -36.041  14.228  -3.925  1.00 20.00     0.001 A 
HETATM    3  C3  UNL     1     -33.718  13.592  -4.113  1.00 20.00     0.001 A 
HETATM    4  C4  UNL     1     -35.676  15.329  -3.150  1.00 20.00     0.007 A 
HETATM    5  C5  UNL     1     -33.354  14.693  -3.338  1.00 20.00     0.007 A 
HETATM    6  C6  UNL     1     -34.333  15.561  -2.856  1.00 20.00    -0.059 A 
ENDROOT
BRANCH   6   7
HETATM    7  C8  UNL     1     -33.943  16.739  -2.027  1.00 20.00     0.034 C 
HETATM    8  C7  UNL     1     -34.616  16.734  -0.658  1.00 20.00     0.010 C 
ENDBRANCH   6   7
TORSDOF 1
ENDMDL
MODEL 7
REMARK VINA RESULT:      -4.3     11.758     12.208
REMARK  1 active torsions:
REMARK  status: ('A' for Active; 'I' for Inactive)
REMARK    1  A    between atoms: C6_6  and  C8_8 
ROOT
HETATM    1  C1  UNL     1     -35.095  13.356  -4.411  1.00 20.00     0.000 A 
HETATM    2  C2  UNL     1     -33.745  13.564  -4.126  1.00 20.00     0.001 A 
HETATM    3  C3  UNL     1     -36.055  14.241  -3.921  1.00 20.00     0.001 A 
HETATM    4  C4  UNL     1     -33.356  14.656  -3.351  1.00 20.00     0.007 A 
HETATM    5  C5  UNL     1     -35.666  15.333  -3.146  1.00 20.00     0.007 A 
HETATM    6  C6  UNL     1     -34.317  15.541  -2.861  1.00 20.00    -0.059 A 
ENDROOT
BRANCH   6   7
HETATM    7  C8  UNL     1     -33.902  16.709  -2.031  1.00 20.00     0.034 C 
HETATM    8  C7  UNL     1     -34.608  16.741  -0.679  1.00 20.00     0.010 C 
ENDBRANCH   6   7
TORSDOF 1
ENDMDL
MODEL 8
REMARK VINA RESULT:      -4.1      9.291     10.575
REMARK  1 active torsions:
REMARK  status: ('A' for Active; 'I' for Inactive)
REMARK    1  A    between atoms: C6_6  and  C8_8 
ROOT
HETATM    1  C1  UNL     1     -41.056   7.042  -0.871  1.00 20.00     0.000 A 
HETATM    2  C2  UNL     1     -40.657   5.754  -0.516  1.00 20.00     0.001 A 
HETATM    3  C3  UNL     1     -41.947   7.230  -1.928  1.00 20.00     0.001 A 
HETATM    4  C4  UNL     1     -41.148   4.653  -1.218  1.00 20.00     0.007 A 
HETATM    5  C5  UNL     1     -42.438   6.129  -2.630  1.00 20.00     0.007 A 
HETATM    6  C6  UNL     1     -42.039   4.841  -2.275  1.00 20.00    -0.059 A 
ENDROOT
BRANCH   6   7
HETATM    7  C8  UNL     1     -42.564   3.664  -3.026  1.00 20.00     0.034 C 
HETATM    8  C7  UNL     1     -41.527   2.553  -3.165  1.00 20.00     0.010 C 
ENDBRANCH   6   7
TORSDOF 1
ENDMDL
MODEL 9
REMARK VINA RESULT:      -4.0     11.675     12.930
REMARK  1 active torsions:
REMARK  status: ('A' for Active; 'I' for Inactive)
REMARK    1  A    between atoms: C6_6  and  C8_8 
ROOT
HETATM    1  C1  UNL     1     -34.857  13.862  -5.781  1.00 20.00     0.000 A 
HETATM    2  C2  UNL     1     -34.878  13.351  -4.483  1.00 20.00     0.001 A 
HETATM    3  C3  UNL     1     -34.443  15.175  -6.007  1.00 20.00     0.001 A 
HETATM    4  C4  UNL     1     -34.485  14.153  -3.412  1.00 20.00     0.007 A 
HETATM    5  C5  UNL     1     -34.050  15.977  -4.935  1.00 20.00     0.007 A 
HETATM    6  C6  UNL     1     -34.071  15.465  -3.637  1.00 20.00    -0.059 A 
ENDROOT
BRANCH   6   7
HETATM    7  C8  UNL     1     -33.651  16.323  -2.492  1.00 20.00     0.034 C 
HETATM    8  C7  UNL     1     -34.700  16.367  -1.384  1.00 20.00     0.010 C 
ENDBRANCH   6   7
TORSDOF 1
ENDMDL
