MODEL 1
REMARK VINA RESULT:      -5.6      0.000      0.000
REMARK  0 active torsions:
REMARK  status: ('A' for Active; 'I' for Inactive)
ROOT
HETATM    1  C1  UNL     1     -35.176   4.557   4.349  1.00 20.00     0.000 A 
HETATM    2  C2  UNL     1     -35.205   4.378   5.732  1.00 20.00     0.003 A 
HETATM    3  C3  UNL     1     -34.484   5.636   3.799  1.00 20.00     0.003 A 
HETATM    4  C4  UNL     1     -34.541   5.280   6.565  1.00 20.00     0.042 A 
HETATM    5  C5  UNL     1     -33.820   6.536   4.632  1.00 20.00     0.042 A 
HETATM    6  C6  UNL     1     -33.849   6.359   6.015  1.00 20.00     0.116 A 
HETATM    7  F7  UNL     1     -33.212   7.224   6.815  1.00 20.00    -0.206 F 
ENDROOT
TORSDOF 0
ENDMDL
MODEL 2
REMARK VINA RESULT:      -5.6      0.001      1.826
REMARK  0 active torsions:
REMARK  status: ('A' for Active; 'I' for Inactive)
ROOT
HETATM    1  C1  UNL     1     -35.176   4.556   4.348  1.00 20.00     0.000 A 
HETATM    2  C2  UNL     1     -34.485   5.635   3.797  1.00 20.00     0.003 A 
HETATM    3  C3  UNL     1     -35.204   4.379   5.732  1.00 20.00     0.003 A 
HETATM    4  C4  UNL     1     -33.820   6.536   4.631  1.00 20.00     0.042 A 
HETATM    5  C5  UNL     1     -34.541   5.280   6.564  1.00 20.00     0.042 A 
HETATM    6  C6  UNL     1     -33.849   6.358   6.014  1.00 20.00     0.116 A 
HETATM    7  F7  UNL     1     -33.211   7.222   6.814  1.00 20.00    -0.206 F 
ENDROOT
TORSDOF 0
ENDMDL
MODEL 3
REMARK VINA RESULT:      -5.6      1.911      2.627
REMARK  0 active torsions:
REMARK  status: ('A' for Active; 'I' for Inactive)
ROOT
HETATM    1  C1  UNL     1     -34.461   5.603   6.524  1.00 20.00     0.000 A 
HETATM    2  C2  UNL     1     -35.110   4.521   5.929  1.00 20.00     0.003 A 
HETATM    3  C3  UNL     1     -33.823   6.556   5.731  1.00 20.00     0.003 A 
HETATM    4  C4  UNL     1     -35.118   4.393   4.540  1.00 20.00     0.042 A 
HETATM    5  C5  UNL     1     -33.832   6.428   4.342  1.00 20.00     0.042 A 
HETATM    6  C6  UNL     1     -34.479   5.346   3.746  1.00 20.00     0.116 A 
HETATM    7  F7  UNL     1     -34.487   5.222   2.413  1.00 20.00    -0.206 F 
ENDROOT
TORSDOF 0
ENDMDL
MODEL 4
REMARK VINA RESULT:      -5.6      1.924      3.031
REMARK  0 active torsions:
REMARK  status: ('A' for Active; 'I' for Inactive)
ROOT
HETATM    1  C1  UNL     1     -34.448   5.633   6.509  1.00 20.00     0.000 A 
HETATM    2  C2  UNL     1     -33.804   6.568   5.698  1.00 20.00     0.003 A 
HETATM    3  C3  UNL     1     -35.095   4.540   5.934  1.00 20.00     0.003 A 
HETATM    4  C4  UNL     1     -33.809   6.409   4.312  1.00 20.00     0.042 A 
HETATM    5  C5  UNL     1     -35.099   4.381   4.549  1.00 20.00     0.042 A 
HETATM    6  C6  UNL     1     -34.456   5.315   3.737  1.00 20.00     0.116 A 
HETATM    7  F7  UNL     1     -34.461   5.163   2.407  1.00 20.00    -0.206 F 
ENDROOT
TORSDOF 0
ENDMDL
MODEL 5
REMARK VINA RESULT:      -5.5      1.407      2.108
REMARK  0 active torsions:
REMARK  status: ('A' for Active; 'I' for Inactive)
ROOT
HETATM    1  C1  UNL     1     -35.103   4.637   5.970  1.00 20.00     0.000 A 
HETATM    2  C2  UNL     1     -34.343   5.714   6.425  1.00 20.00     0.003 A 
HETATM    3  C3  UNL     1     -35.244   4.412   4.600  1.00 20.00     0.003 A 
HETATM    4  C4  UNL     1     -33.727   6.568   5.510  1.00 20.00     0.042 A 
HETATM    5  C5  UNL     1     -34.627   5.265   3.686  1.00 20.00     0.042 A 
HETATM    6  C6  UNL     1     -33.868   6.343   4.140  1.00 20.00     0.116 A 
HETATM    7  F7  UNL     1     -33.276   7.163   3.262  1.00 20.00    -0.206 F 
ENDROOT
TORSDOF 0
ENDMDL
MODEL 6
REMARK VINA RESULT:      -5.3      1.624      2.416
REMARK  0 active torsions:
REMARK  status: ('A' for Active; 'I' for Inactive)
ROOT
HETATM    1  C1  UNL     1     -33.822   6.508   4.060  1.00 20.00     0.000 A 
HETATM    2  C2  UNL     1     -33.672   6.687   5.435  1.00 20.00     0.003 A 
HETATM    3  C3  UNL     1     -34.590   5.449   3.574  1.00 20.00     0.003 A 
HETATM    4  C4  UNL     1     -34.289   5.806   6.324  1.00 20.00     0.042 A 
HETATM    5  C5  UNL     1     -35.207   4.570   4.463  1.00 20.00     0.042 A 
HETATM    6  C6  UNL     1     -35.057   4.748   5.838  1.00 20.00     0.116 A 
HETATM    7  F7  UNL     1     -35.649   3.903   6.691  1.00 20.00    -0.206 F 
ENDROOT
TORSDOF 0
ENDMDL
MODEL 7
REMARK VINA RESULT:      -5.3      1.622      2.569
REMARK  0 active torsions:
REMARK  status: ('A' for Active; 'I' for Inactive)
ROOT
HETATM    1  C1  UNL     1     -33.826   6.498   4.057  1.00 20.00     0.000 A 
HETATM    2  C2  UNL     1     -34.610   5.449   3.578  1.00 20.00     0.003 A 
HETATM    3  C3  UNL     1     -33.658   6.674   5.430  1.00 20.00     0.003 A 
HETATM    4  C4  UNL     1     -35.228   4.577   4.475  1.00 20.00     0.042 A 
HETATM    5  C5  UNL     1     -34.275   5.801   6.326  1.00 20.00     0.042 A 
HETATM    6  C6  UNL     1     -35.060   4.752   5.848  1.00 20.00     0.116 A 
HETATM    7  F7  UNL     1     -35.653   3.915   6.708  1.00 20.00    -0.206 F 
ENDROOT
TORSDOF 0
ENDMDL
MODEL 8
REMARK VINA RESULT:      -3.9      8.901      9.799
REMARK  0 active torsions:
REMARK  status: ('A' for Active; 'I' for Inactive)
ROOT
HETATM    1  C1  UNL     1     -42.308   5.420  -2.650  1.00 20.00     0.000 A 
HETATM    2  C2  UNL     1     -42.150   6.758  -2.286  1.00 20.00     0.003 A 
HETATM    3  C3  UNL     1     -41.698   4.416  -1.898  1.00 20.00     0.003 A 
HETATM    4  C4  UNL     1     -41.380   7.090  -1.171  1.00 20.00     0.042 A 
HETATM    5  C5  UNL     1     -40.929   4.748  -0.783  1.00 20.00     0.042 A 
HETATM    6  C6  UNL     1     -40.770   6.085  -0.419  1.00 20.00     0.116 A 
HETATM    7  F7  UNL     1     -40.031   6.404   0.651  1.00 20.00    -0.206 F 
ENDROOT
TORSDOF 0
ENDMDL
MODEL 9
REMARK VINA RESULT:      -3.9      8.911      9.713
REMARK  0 active torsions:
REMARK  status: ('A' for Active; 'I' for Inactive)
ROOT
HETATM    1  C1  UNL     1     -42.319   5.306  -2.645  1.00 20.00     0.000 A 
HETATM    2  C2  UNL     1     -41.690   4.332  -1.869  1.00 20.00     0.003 A 
HETATM    3  C3  UNL     1     -42.177   6.655  -2.320  1.00 20.00     0.003 A 
HETATM    4  C4  UNL     1     -40.920   4.708  -0.768  1.00 20.00     0.042 A 
HETATM    5  C5  UNL     1     -41.406   7.031  -1.220  1.00 20.00     0.042 A 
HETATM    6  C6  UNL     1     -40.778   6.057  -0.444  1.00 20.00     0.116 A 
HETATM    7  F7  UNL     1     -40.038   6.418   0.613  1.00 20.00    -0.206 F 
ENDROOT
TORSDOF 0
ENDMDL
