MODEL 1
REMARK VINA RESULT:      -6.0      0.000      0.000
REMARK  0 active torsions:
REMARK  status: ('A' for Active; 'I' for Inactive)
ROOT
HETATM    1  C1  UNL     1     -34.602   5.644   6.706  1.00 20.00     0.001 A 
HETATM    2  C2  UNL     1     -35.292   4.682   5.949  1.00 20.00     0.001 A 
HETATM    3  C3  UNL     1     -33.666   6.492   6.105  1.00 20.00     0.012 A 
HETATM    4  C4  UNL     1     -35.060   4.550   4.578  1.00 20.00     0.008 A 
HETATM    5  C5  UNL     1     -33.443   6.354   4.746  1.00 20.00    -0.030 A 
HETATM    6  C6  UNL     1     -34.133   5.394   3.993  1.00 20.00    -0.044 A 
HETATM    7  C7  UNL     1     -32.544   7.086   3.870  1.00 20.00     0.008 A 
HETATM    8  C8  UNL     1     -32.682   6.587   2.632  1.00 20.00    -0.021 A 
HETATM    9  C9  UNL     1     -33.694   5.469   2.563  1.00 20.00     0.066 A 
ENDROOT
TORSDOF 0
ENDMDL
MODEL 2
REMARK VINA RESULT:      -5.9      0.083      1.980
REMARK  0 active torsions:
REMARK  status: ('A' for Active; 'I' for Inactive)
ROOT
HETATM    1  C1  UNL     1     -35.301   4.611   5.907  1.00 20.00     0.001 A 
HETATM    2  C2  UNL     1     -34.660   5.576   6.703  1.00 20.00     0.001 A 
HETATM    3  C3  UNL     1     -35.022   4.512   4.540  1.00 20.00     0.012 A 
HETATM    4  C4  UNL     1     -33.730   6.458   6.148  1.00 20.00     0.008 A 
HETATM    5  C5  UNL     1     -34.100   5.390   3.999  1.00 20.00    -0.030 A 
HETATM    6  C6  UNL     1     -33.461   6.351   4.796  1.00 20.00    -0.044 A 
HETATM    7  C7  UNL     1     -33.622   5.514   2.633  1.00 20.00     0.008 A 
HETATM    8  C8  UNL     1     -32.728   6.515   2.602  1.00 20.00    -0.021 A 
HETATM    9  C9  UNL     1     -32.522   7.157   3.953  1.00 20.00     0.066 A 
ENDROOT
TORSDOF 0
ENDMDL
MODEL 3
REMARK VINA RESULT:      -5.6      0.490      3.713
REMARK  0 active torsions:
REMARK  status: ('A' for Active; 'I' for Inactive)
ROOT
HETATM    1  C1  UNL     1     -32.880   6.205   2.404  1.00 20.00     0.001 A 
HETATM    2  C2  UNL     1     -32.293   7.109   3.305  1.00 20.00     0.001 A 
HETATM    3  C3  UNL     1     -33.859   5.303   2.830  1.00 20.00     0.012 A 
HETATM    4  C4  UNL     1     -32.674   7.128   4.649  1.00 20.00     0.008 A 
HETATM    5  C5  UNL     1     -34.230   5.328   4.163  1.00 20.00    -0.030 A 
HETATM    6  C6  UNL     1     -33.643   6.231   5.061  1.00 20.00    -0.044 A 
HETATM    7  C7  UNL     1     -35.206   4.520   4.875  1.00 20.00     0.008 A 
HETATM    8  C8  UNL     1     -35.209   4.918   6.157  1.00 20.00    -0.021 A 
HETATM    9  C9  UNL     1     -34.231   6.036   6.424  1.00 20.00     0.066 A 
ENDROOT
TORSDOF 0
ENDMDL
MODEL 4
REMARK VINA RESULT:      -5.6      0.486      3.142
REMARK  0 active torsions:
REMARK  status: ('A' for Active; 'I' for Inactive)
ROOT
HETATM    1  C1  UNL     1     -32.264   7.121   3.431  1.00 20.00     0.001 A 
HETATM    2  C2  UNL     1     -32.833   6.265   2.473  1.00 20.00     0.001 A 
HETATM    3  C3  UNL     1     -32.680   7.079   4.765  1.00 20.00     0.012 A 
HETATM    4  C4  UNL     1     -33.827   5.351   2.831  1.00 20.00     0.008 A 
HETATM    5  C5  UNL     1     -33.666   6.172   5.111  1.00 20.00    -0.030 A 
HETATM    6  C6  UNL     1     -34.232   5.318   4.153  1.00 20.00    -0.044 A 
HETATM    7  C7  UNL     1     -34.282   5.911   6.401  1.00 20.00     0.008 A 
HETATM    8  C8  UNL     1     -35.190   4.937   6.230  1.00 20.00    -0.021 A 
HETATM    9  C9  UNL     1     -35.265   4.451   4.803  1.00 20.00     0.066 A 
ENDROOT
TORSDOF 0
ENDMDL
MODEL 5
REMARK VINA RESULT:      -4.5     12.026     13.929
REMARK  0 active torsions:
REMARK  status: ('A' for Active; 'I' for Inactive)
ROOT
HETATM    1  C1  UNL     1     -33.651  13.847  -3.765  1.00 20.00     0.001 A 
HETATM    2  C2  UNL     1     -33.075  15.125  -3.668  1.00 20.00     0.001 A 
HETATM    3  C3  UNL     1     -34.424  13.491  -4.874  1.00 20.00     0.012 A 
HETATM    4  C4  UNL     1     -33.261  16.071  -4.679  1.00 20.00     0.008 A 
HETATM    5  C5  UNL     1     -34.603  14.435  -5.871  1.00 20.00    -0.030 A 
HETATM    6  C6  UNL     1     -34.027  15.709  -5.773  1.00 20.00    -0.044 A 
HETATM    7  C7  UNL     1     -35.344  14.344  -7.118  1.00 20.00     0.008 A 
HETATM    8  C8  UNL     1     -35.223  15.522  -7.751  1.00 20.00    -0.021 A 
HETATM    9  C9  UNL     1     -34.384  16.515  -6.984  1.00 20.00     0.066 A 
ENDROOT
TORSDOF 0
ENDMDL
MODEL 6
REMARK VINA RESULT:      -4.5     12.033     13.811
REMARK  0 active torsions:
REMARK  status: ('A' for Active; 'I' for Inactive)
ROOT
HETATM    1  C1  UNL     1     -33.083  15.094  -3.652  1.00 20.00     0.001 A 
HETATM    2  C2  UNL     1     -33.673  13.824  -3.768  1.00 20.00     0.001 A 
HETATM    3  C3  UNL     1     -33.251  16.055  -4.654  1.00 20.00     0.012 A 
HETATM    4  C4  UNL     1     -34.442  13.492  -4.886  1.00 20.00     0.008 A 
HETATM    5  C5  UNL     1     -34.014  15.717  -5.758  1.00 20.00    -0.030 A 
HETATM    6  C6  UNL     1     -34.602  14.450  -5.871  1.00 20.00    -0.044 A 
HETATM    7  C7  UNL     1     -34.353  16.503  -6.932  1.00 20.00     0.008 A 
HETATM    8  C8  UNL     1     -35.117  15.739  -7.728  1.00 20.00    -0.021 A 
HETATM    9  C9  UNL     1     -35.363  14.364  -7.158  1.00 20.00     0.066 A 
ENDROOT
TORSDOF 0
ENDMDL
MODEL 7
REMARK VINA RESULT:      -4.4      9.492     10.570
REMARK  0 active torsions:
REMARK  status: ('A' for Active; 'I' for Inactive)
ROOT
HETATM    1  C1  UNL     1     -41.201   7.222  -0.824  1.00 20.00     0.001 A 
HETATM    2  C2  UNL     1     -40.479   6.143  -0.285  1.00 20.00     0.001 A 
HETATM    3  C3  UNL     1     -42.152   7.017  -1.828  1.00 20.00     0.012 A 
HETATM    4  C4  UNL     1     -40.696   4.840  -0.739  1.00 20.00     0.008 A 
HETATM    5  C5  UNL     1     -42.360   5.723  -2.272  1.00 20.00    -0.030 A 
HETATM    6  C6  UNL     1     -41.639   4.648  -1.733  1.00 20.00    -0.044 A 
HETATM    7  C7  UNL     1     -43.270   5.221  -3.287  1.00 20.00     0.008 A 
HETATM    8  C8  UNL     1     -43.106   3.891  -3.361  1.00 20.00    -0.021 A 
HETATM    9  C9  UNL     1     -42.066   3.376  -2.396  1.00 20.00     0.066 A 
ENDROOT
TORSDOF 0
ENDMDL
MODEL 8
REMARK VINA RESULT:      -4.4      9.591     10.650
REMARK  0 active torsions:
REMARK  status: ('A' for Active; 'I' for Inactive)
ROOT
HETATM    1  C1  UNL     1     -41.842   3.369  -2.456  1.00 20.00     0.001 A 
HETATM    2  C2  UNL     1     -42.876   3.938  -3.219  1.00 20.00     0.001 A 
HETATM    3  C3  UNL     1     -41.085   4.152  -1.579  1.00 20.00     0.012 A 
HETATM    4  C4  UNL     1     -43.173   5.299  -3.117  1.00 20.00     0.008 A 
HETATM    5  C5  UNL     1     -41.386   5.499  -1.485  1.00 20.00    -0.030 A 
HETATM    6  C6  UNL     1     -42.419   6.065  -2.246  1.00 20.00    -0.044 A 
HETATM    7  C7  UNL     1     -40.777   6.536  -0.669  1.00 20.00     0.008 A 
HETATM    8  C8  UNL     1     -41.416   7.687  -0.928  1.00 20.00    -0.021 A 
HETATM    9  C9  UNL     1     -42.519   7.528  -1.945  1.00 20.00     0.066 A 
ENDROOT
TORSDOF 0
ENDMDL
MODEL 9
REMARK VINA RESULT:      -4.3     12.129     14.259
REMARK  0 active torsions:
REMARK  status: ('A' for Active; 'I' for Inactive)
ROOT
HETATM    1  C1  UNL     1     -35.117  15.750  -7.628  1.00 20.00     0.001 A 
HETATM    2  C2  UNL     1     -34.461  16.856  -7.062  1.00 20.00     0.001 A 
HETATM    3  C3  UNL     1     -35.166  14.525  -6.955  1.00 20.00     0.012 A 
HETATM    4  C4  UNL     1     -33.841  16.759  -5.814  1.00 20.00     0.008 A 
HETATM    5  C5  UNL     1     -34.549  14.438  -5.720  1.00 20.00    -0.030 A 
HETATM    6  C6  UNL     1     -33.894  15.543  -5.157  1.00 20.00    -0.044 A 
HETATM    7  C7  UNL     1     -34.442  13.310  -4.809  1.00 20.00     0.008 A 
HETATM    8  C8  UNL     1     -33.747  13.717  -3.735  1.00 20.00    -0.021 A 
HETATM    9  C9  UNL     1     -33.322  15.163  -3.827  1.00 20.00     0.066 A 
ENDROOT
TORSDOF 0
ENDMDL
