MODEL 1
REMARK VINA RESULT:      -5.4      0.000      0.000
REMARK  0 active torsions:
REMARK  status: ('A' for Active; 'I' for Inactive)
ROOT
HETATM    1  C1  UNL     1     -35.304   4.614   5.841  1.00 20.00     0.001 A 
HETATM    2  C2  UNL     1     -34.691   5.533   6.690  1.00 20.00     0.002 A 
HETATM    3  C3  UNL     1     -34.986   4.573   4.479  1.00 20.00     0.014 A 
HETATM    4  C4  UNL     1     -33.744   6.439   6.207  1.00 20.00     0.030 A 
HETATM    5  C5  UNL     1     -33.481   5.713   2.678  1.00 20.00     0.030 A 
HETATM    6  C6  UNL     1     -32.576   6.743   2.792  1.00 20.00     0.089 A 
HETATM    7  C7  UNL     1     -34.032   5.477   3.969  1.00 20.00    -0.008 A 
HETATM    8  C8  UNL     1     -33.434   6.387   4.843  1.00 20.00     0.042 A 
HETATM    9  N9  UNL     1     -32.555   7.144   4.102  1.00 20.00    -0.365 N 
HETATM   10  H16 UNL     1     -31.977   7.886   4.470  1.00 20.00     0.165 HD
ENDROOT
TORSDOF 0
ENDMDL
MODEL 2
REMARK VINA RESULT:      -5.3      0.870      1.934
REMARK  0 active torsions:
REMARK  status: ('A' for Active; 'I' for Inactive)
ROOT
HETATM    1  C1  UNL     1     -34.668   5.573   6.662  1.00 20.00     0.001 A 
HETATM    2  C2  UNL     1     -35.284   4.646   5.823  1.00 20.00     0.002 A 
HETATM    3  C3  UNL     1     -33.720   6.473   6.162  1.00 20.00     0.014 A 
HETATM    4  C4  UNL     1     -34.973   4.589   4.462  1.00 20.00     0.030 A 
HETATM    5  C5  UNL     1     -32.500   7.174   3.966  1.00 20.00     0.030 A 
HETATM    6  C6  UNL     1     -32.608   6.679   2.686  1.00 20.00     0.089 A 
HETATM    7  C7  UNL     1     -33.391   6.434   4.793  1.00 20.00    -0.008 A 
HETATM    8  C8  UNL     1     -34.024   5.495   3.975  1.00 20.00     0.042 A 
HETATM    9  N9  UNL     1     -33.529   5.666   2.703  1.00 20.00    -0.365 N 
HETATM   10  H16 UNL     1     -33.807   5.124   1.897  1.00 20.00     0.165 HD
ENDROOT
TORSDOF 0
ENDMDL
MODEL 3
REMARK VINA RESULT:      -4.9      1.488      3.689
REMARK  0 active torsions:
REMARK  status: ('A' for Active; 'I' for Inactive)
ROOT
HETATM    1  C1  UNL     1     -32.624   6.793   3.136  1.00 20.00     0.001 A 
HETATM    2  C2  UNL     1     -33.362   5.924   2.336  1.00 20.00     0.002 A 
HETATM    3  C3  UNL     1     -32.844   6.858   4.516  1.00 20.00     0.014 A 
HETATM    4  C4  UNL     1     -34.342   5.095   2.887  1.00 20.00     0.030 A 
HETATM    5  C5  UNL     1     -34.304   5.838   6.422  1.00 20.00     0.030 A 
HETATM    6  C6  UNL     1     -35.291   4.881   6.376  1.00 20.00     0.089 A 
HETATM    7  C7  UNL     1     -33.826   6.031   5.095  1.00 20.00    -0.008 A 
HETATM    8  C8  UNL     1     -34.552   5.169   4.269  1.00 20.00     0.042 A 
HETATM    9  N9  UNL     1     -35.434   4.484   5.073  1.00 20.00    -0.365 N 
HETATM   10  H16 UNL     1     -36.091   3.788   4.749  1.00 20.00     0.165 HD
ENDROOT
TORSDOF 0
ENDMDL
MODEL 4
REMARK VINA RESULT:      -4.7      1.210      3.133
REMARK  0 active torsions:
REMARK  status: ('A' for Active; 'I' for Inactive)
ROOT
HETATM    1  C1  UNL     1     -32.912   6.182   2.449  1.00 20.00     0.001 A 
HETATM    2  C2  UNL     1     -32.321   7.064   3.351  1.00 20.00     0.002 A 
HETATM    3  C3  UNL     1     -33.904   5.287   2.866  1.00 20.00     0.014 A 
HETATM    4  C4  UNL     1     -32.700   7.079   4.696  1.00 20.00     0.030 A 
HETATM    5  C5  UNL     1     -35.252   4.537   4.970  1.00 20.00     0.030 A 
HETATM    6  C6  UNL     1     -35.200   4.984   6.271  1.00 20.00     0.089 A 
HETATM    7  C7  UNL     1     -34.303   5.285   4.218  1.00 20.00    -0.008 A 
HETATM    8  C8  UNL     1     -33.694   6.180   5.100  1.00 20.00     0.042 A 
HETATM    9  N9  UNL     1     -34.256   5.975   6.339  1.00 20.00    -0.365 N 
HETATM   10  H16 UNL     1     -34.011   6.482   7.177  1.00 20.00     0.165 HD
ENDROOT
TORSDOF 0
ENDMDL
MODEL 5
REMARK VINA RESULT:      -4.5     12.066     12.562
REMARK  0 active torsions:
REMARK  status: ('A' for Active; 'I' for Inactive)
ROOT
HETATM    1  C1  UNL     1     -33.949  13.561  -4.317  1.00 20.00     0.001 A 
HETATM    2  C2  UNL     1     -35.334  13.492  -4.455  1.00 20.00     0.002 A 
HETATM    3  C3  UNL     1     -33.356  14.556  -3.531  1.00 20.00     0.014 A 
HETATM    4  C4  UNL     1     -36.168  14.412  -3.815  1.00 20.00     0.030 A 
HETATM    5  C5  UNL     1     -33.927  16.606  -2.022  1.00 20.00     0.030 A 
HETATM    6  C6  UNL     1     -35.144  17.155  -1.684  1.00 20.00     0.089 A 
HETATM    7  C7  UNL     1     -34.178  15.494  -2.875  1.00 20.00    -0.008 A 
HETATM    8  C8  UNL     1     -35.562  15.401  -3.032  1.00 20.00     0.042 A 
HETATM    9  N9  UNL     1     -36.123  16.422  -2.299  1.00 20.00    -0.365 N 
HETATM   10  H16 UNL     1     -37.114  16.603  -2.223  1.00 20.00     0.165 HD
ENDROOT
TORSDOF 0
ENDMDL
MODEL 6
REMARK VINA RESULT:      -4.3      9.865     10.665
REMARK  0 active torsions:
REMARK  status: ('A' for Active; 'I' for Inactive)
ROOT
HETATM    1  C1  UNL     1     -42.159   7.605  -1.712  1.00 20.00     0.001 A 
HETATM    2  C2  UNL     1     -41.171   7.202  -0.816  1.00 20.00     0.002 A 
HETATM    3  C3  UNL     1     -42.778   6.681  -2.560  1.00 20.00     0.014 A 
HETATM    4  C4  UNL     1     -40.769   5.866  -0.741  1.00 20.00     0.030 A 
HETATM    5  C5  UNL     1     -42.792   4.150  -3.193  1.00 20.00     0.030 A 
HETATM    6  C6  UNL     1     -42.047   3.102  -2.701  1.00 20.00     0.089 A 
HETATM    7  C7  UNL     1     -42.390   5.327  -2.501  1.00 20.00    -0.008 A 
HETATM    8  C8  UNL     1     -41.396   4.952  -1.595  1.00 20.00     0.042 A 
HETATM    9  N9  UNL     1     -41.208   3.596  -1.738  1.00 20.00    -0.365 N 
HETATM   10  H16 UNL     1     -40.547   3.045  -1.209  1.00 20.00     0.165 HD
ENDROOT
TORSDOF 0
ENDMDL
MODEL 7
REMARK VINA RESULT:      -4.3      9.836     10.656
REMARK  0 active torsions:
REMARK  status: ('A' for Active; 'I' for Inactive)
ROOT
HETATM    1  C1  UNL     1     -40.529   6.150  -0.283  1.00 20.00     0.001 A 
HETATM    2  C2  UNL     1     -41.189   7.219  -0.885  1.00 20.00     0.002 A 
HETATM    3  C3  UNL     1     -40.756   4.836  -0.707  1.00 20.00     0.014 A 
HETATM    4  C4  UNL     1     -42.097   7.009  -1.926  1.00 20.00     0.030 A 
HETATM    5  C5  UNL     1     -42.130   3.432  -2.424  1.00 20.00     0.030 A 
HETATM    6  C6  UNL     1     -43.033   3.829  -3.383  1.00 20.00     0.089 A 
HETATM    7  C7  UNL     1     -41.667   4.600  -1.756  1.00 20.00    -0.008 A 
HETATM    8  C8  UNL     1     -42.315   5.690  -2.341  1.00 20.00     0.042 A 
HETATM    9  N9  UNL     1     -43.139   5.193  -3.325  1.00 20.00    -0.365 N 
HETATM   10  H16 UNL     1     -43.734   5.752  -3.919  1.00 20.00     0.165 HD
ENDROOT
TORSDOF 0
ENDMDL
MODEL 8
REMARK VINA RESULT:      -4.2     12.088     13.886
REMARK  0 active torsions:
REMARK  status: ('A' for Active; 'I' for Inactive)
ROOT
HETATM    1  C1  UNL     1     -33.105  15.113  -3.685  1.00 20.00     0.001 A 
HETATM    2  C2  UNL     1     -33.685  13.847  -3.721  1.00 20.00     0.002 A 
HETATM    3  C3  UNL     1     -33.285  16.014  -4.741  1.00 20.00     0.014 A 
HETATM    4  C4  UNL     1     -34.460  13.441  -4.811  1.00 20.00     0.030 A 
HETATM    5  C5  UNL     1     -34.446  16.265  -7.063  1.00 20.00     0.030 A 
HETATM    6  C6  UNL     1     -35.227  15.380  -7.772  1.00 20.00     0.089 A 
HETATM    7  C7  UNL     1     -34.063  15.627  -5.849  1.00 20.00    -0.008 A 
HETATM    8  C8  UNL     1     -34.633  14.352  -5.859  1.00 20.00     0.042 A 
HETATM    9  N9  UNL     1     -35.332  14.229  -7.038  1.00 20.00    -0.365 N 
HETATM   10  H16 UNL     1     -35.850  13.409  -7.320  1.00 20.00     0.165 HD
ENDROOT
TORSDOF 0
ENDMDL
MODEL 9
REMARK VINA RESULT:      -4.2     12.209     13.832
REMARK  0 active torsions:
REMARK  status: ('A' for Active; 'I' for Inactive)
ROOT
HETATM    1  C1  UNL     1     -33.668  13.839  -3.768  1.00 20.00     0.001 A 
HETATM    2  C2  UNL     1     -33.088  15.101  -3.662  1.00 20.00     0.002 A 
HETATM    3  C3  UNL     1     -34.433  13.492  -4.887  1.00 20.00     0.014 A 
HETATM    4  C4  UNL     1     -33.256  16.057  -4.668  1.00 20.00     0.030 A 
HETATM    5  C5  UNL     1     -35.309  14.433  -7.157  1.00 20.00     0.030 A 
HETATM    6  C6  UNL     1     -35.128  15.665  -7.743  1.00 20.00     0.089 A 
HETATM    7  C7  UNL     1     -34.615  14.439  -5.914  1.00 20.00    -0.008 A 
HETATM    8  C8  UNL     1     -34.023  15.697  -5.782  1.00 20.00     0.042 A 
HETATM    9  N9  UNL     1     -34.351  16.421  -6.906  1.00 20.00    -0.365 N 
HETATM   10  H16 UNL     1     -34.060  17.371  -7.088  1.00 20.00     0.165 HD
ENDROOT
TORSDOF 0
ENDMDL
