MODEL 1
REMARK VINA RESULT:      -5.2      0.000      0.000
REMARK  0 active torsions:
REMARK  status: ('A' for Active; 'I' for Inactive)
ROOT
HETATM    1  C1  UNL     1     -35.224   4.818   5.916  1.00 20.00     0.000 A 
HETATM    2  C2  UNL     1     -34.372   5.786   6.447  1.00 20.00     0.001 A 
HETATM    3  C3  UNL     1     -35.239   4.582   4.540  1.00 20.00     0.001 A 
HETATM    4  C4  UNL     1     -33.537   6.520   5.606  1.00 20.00     0.018 A 
HETATM    5  C5  UNL     1     -34.404   5.315   3.698  1.00 20.00     0.018 A 
HETATM    6  C6  UNL     1     -33.552   6.284   4.231  1.00 20.00     0.006 A 
HETATM    7  I7  UNL     1     -32.308   7.376   2.976  1.00 20.00    -0.045 I 
ENDROOT
TORSDOF 0
ENDMDL
MODEL 2
REMARK VINA RESULT:      -5.2      0.001      1.827
REMARK  0 active torsions:
REMARK  status: ('A' for Active; 'I' for Inactive)
ROOT
HETATM    1  C1  UNL     1     -35.223   4.817   5.916  1.00 20.00     0.000 A 
HETATM    2  C2  UNL     1     -35.239   4.583   4.542  1.00 20.00     0.001 A 
HETATM    3  C3  UNL     1     -34.372   5.787   6.449  1.00 20.00     0.001 A 
HETATM    4  C4  UNL     1     -34.404   5.315   3.699  1.00 20.00     0.018 A 
HETATM    5  C5  UNL     1     -33.537   6.520   5.606  1.00 20.00     0.018 A 
HETATM    6  C6  UNL     1     -33.553   6.284   4.231  1.00 20.00     0.006 A 
HETATM    7  I7  UNL     1     -32.309   7.376   2.975  1.00 20.00    -0.045 I 
ENDROOT
TORSDOF 0
ENDMDL
MODEL 3
REMARK VINA RESULT:      -3.8      9.486     10.372
REMARK  0 active torsions:
REMARK  status: ('A' for Active; 'I' for Inactive)
ROOT
HETATM    1  C1  UNL     1     -41.114   7.101  -0.904  1.00 20.00     0.000 A 
HETATM    2  C2  UNL     1     -41.953   7.100  -2.017  1.00 20.00     0.001 A 
HETATM    3  C3  UNL     1     -40.652   5.894  -0.378  1.00 20.00     0.001 A 
HETATM    4  C4  UNL     1     -42.332   5.894  -2.606  1.00 20.00     0.018 A 
HETATM    5  C5  UNL     1     -41.029   4.687  -0.966  1.00 20.00     0.018 A 
HETATM    6  C6  UNL     1     -41.870   4.687  -2.080  1.00 20.00     0.006 A 
HETATM    7  I7  UNL     1     -42.432   2.889  -2.956  1.00 20.00    -0.045 I 
ENDROOT
TORSDOF 0
ENDMDL
MODEL 4
REMARK VINA RESULT:      -3.8     12.139     12.405
REMARK  0 active torsions:
REMARK  status: ('A' for Active; 'I' for Inactive)
ROOT
HETATM    1  C1  UNL     1     -34.989  13.405  -4.598  1.00 20.00     0.000 A 
HETATM    2  C2  UNL     1     -36.105  14.133  -4.187  1.00 20.00     0.001 A 
HETATM    3  C3  UNL     1     -33.728  13.711  -4.084  1.00 20.00     0.001 A 
HETATM    4  C4  UNL     1     -35.962  15.168  -3.263  1.00 20.00     0.018 A 
HETATM    5  C5  UNL     1     -33.584  14.747  -3.160  1.00 20.00     0.018 A 
HETATM    6  C6  UNL     1     -34.701  15.475  -2.750  1.00 20.00     0.006 A 
HETATM    7  I7  UNL     1     -34.487  17.017  -1.373  1.00 20.00    -0.045 I 
ENDROOT
TORSDOF 0
ENDMDL
MODEL 5
REMARK VINA RESULT:      -3.8     12.142     12.363
REMARK  0 active torsions:
REMARK  status: ('A' for Active; 'I' for Inactive)
ROOT
HETATM    1  C1  UNL     1     -34.979  13.389  -4.606  1.00 20.00     0.000 A 
HETATM    2  C2  UNL     1     -33.722  13.706  -4.090  1.00 20.00     0.001 A 
HETATM    3  C3  UNL     1     -36.102  14.110  -4.199  1.00 20.00     0.001 A 
HETATM    4  C4  UNL     1     -33.588  14.743  -3.168  1.00 20.00     0.018 A 
HETATM    5  C5  UNL     1     -35.968  15.148  -3.277  1.00 20.00     0.018 A 
HETATM    6  C6  UNL     1     -34.711  15.465  -2.761  1.00 20.00     0.006 A 
HETATM    7  I7  UNL     1     -34.511  17.011  -1.388  1.00 20.00    -0.045 I 
ENDROOT
TORSDOF 0
ENDMDL
MODEL 6
REMARK VINA RESULT:      -3.7      9.531     10.261
REMARK  0 active torsions:
REMARK  status: ('A' for Active; 'I' for Inactive)
ROOT
HETATM    1  C1  UNL     1     -40.858   4.657  -0.793  1.00 20.00     0.000 A 
HETATM    2  C2  UNL     1     -40.679   6.018  -0.548  1.00 20.00     0.001 A 
HETATM    3  C3  UNL     1     -41.670   4.238  -1.848  1.00 20.00     0.001 A 
HETATM    4  C4  UNL     1     -41.313   6.962  -1.356  1.00 20.00     0.018 A 
HETATM    5  C5  UNL     1     -42.304   5.182  -2.657  1.00 20.00     0.018 A 
HETATM    6  C6  UNL     1     -42.125   6.544  -2.411  1.00 20.00     0.006 A 
HETATM    7  I7  UNL     1     -43.069   7.949  -3.616  1.00 20.00    -0.045 I 
ENDROOT
TORSDOF 0
ENDMDL
MODEL 7
REMARK VINA RESULT:      -3.6     12.699     13.727
REMARK  0 active torsions:
REMARK  status: ('A' for Active; 'I' for Inactive)
ROOT
HETATM    1  C1  UNL     1     -33.105  14.897  -3.620  1.00 20.00     0.000 A 
HETATM    2  C2  UNL     1     -33.818  13.757  -3.988  1.00 20.00     0.001 A 
HETATM    3  C3  UNL     1     -33.111  16.021  -4.447  1.00 20.00     0.001 A 
HETATM    4  C4  UNL     1     -34.536  13.738  -5.183  1.00 20.00     0.018 A 
HETATM    5  C5  UNL     1     -33.830  16.003  -5.642  1.00 20.00     0.018 A 
HETATM    6  C6  UNL     1     -34.543  14.861  -6.010  1.00 20.00     0.006 A 
HETATM    7  I7  UNL     1     -35.613  14.835  -7.790  1.00 20.00    -0.045 I 
ENDROOT
TORSDOF 0
ENDMDL
MODEL 8
REMARK VINA RESULT:      -3.6     12.634     13.547
REMARK  0 active torsions:
REMARK  status: ('A' for Active; 'I' for Inactive)
ROOT
HETATM    1  C1  UNL     1     -33.463  13.773  -3.738  1.00 20.00     0.000 A 
HETATM    2  C2  UNL     1     -32.978  15.080  -3.694  1.00 20.00     0.001 A 
HETATM    3  C3  UNL     1     -34.333  13.386  -4.758  1.00 20.00     0.001 A 
HETATM    4  C4  UNL     1     -33.363  16.001  -4.668  1.00 20.00     0.018 A 
HETATM    5  C5  UNL     1     -34.718  14.307  -5.733  1.00 20.00     0.018 A 
HETATM    6  C6  UNL     1     -34.233  15.615  -5.688  1.00 20.00     0.006 A 
HETATM    7  I7  UNL     1     -34.807  16.986  -7.139  1.00 20.00    -0.045 I 
ENDROOT
TORSDOF 0
ENDMDL
MODEL 9
REMARK VINA RESULT:      -3.6     12.637     13.660
REMARK  0 active torsions:
REMARK  status: ('A' for Active; 'I' for Inactive)
ROOT
HETATM    1  C1  UNL     1     -33.470  13.774  -3.740  1.00 20.00     0.000 A 
HETATM    2  C2  UNL     1     -34.339  13.389  -4.760  1.00 20.00     0.001 A 
HETATM    3  C3  UNL     1     -32.983  15.081  -3.695  1.00 20.00     0.001 A 
HETATM    4  C4  UNL     1     -34.721  14.308  -5.737  1.00 20.00     0.018 A 
HETATM    5  C5  UNL     1     -33.366  16.001  -4.671  1.00 20.00     0.018 A 
HETATM    6  C6  UNL     1     -34.235  15.615  -5.692  1.00 20.00     0.006 A 
HETATM    7  I7  UNL     1     -34.804  16.986  -7.145  1.00 20.00    -0.045 I 
ENDROOT
TORSDOF 0
ENDMDL
