MODEL 1
REMARK VINA RESULT:      -2.6      0.000      0.000
REMARK  0 active torsions:
REMARK  status: ('A' for Active; 'I' for Inactive)
ROOT
HETATM    1  C1  UNL     1     -33.334   6.157   3.468  1.00 20.00     0.016 C 
HETATM    2  C2  UNL     1     -34.671   5.482   3.717  1.00 20.00     0.075 C 
HETATM    3  I3  UNL     1     -34.773   4.706   5.699  1.00 20.00    -0.090 I 
ENDROOT
TORSDOF 0
ENDMDL
MODEL 2
REMARK VINA RESULT:      -2.6      2.191      2.579
REMARK  0 active torsions:
REMARK  status: ('A' for Active; 'I' for Inactive)
ROOT
HETATM    1  C1  UNL     1     -34.960   4.457   5.977  1.00 20.00     0.016 C 
HETATM    2  C2  UNL     1     -35.214   4.905   4.549  1.00 20.00     0.075 C 
HETATM    3  I3  UNL     1     -33.649   6.179   3.863  1.00 20.00    -0.090 I 
ENDROOT
TORSDOF 0
ENDMDL
MODEL 3
REMARK VINA RESULT:      -2.4      2.527      2.527
REMARK  0 active torsions:
REMARK  status: ('A' for Active; 'I' for Inactive)
ROOT
HETATM    1  C1  UNL     1     -33.833   6.778   6.535  1.00 20.00     0.016 C 
HETATM    2  C2  UNL     1     -34.560   5.475   6.255  1.00 20.00     0.075 C 
HETATM    3  I3  UNL     1     -34.925   5.242   4.168  1.00 20.00    -0.090 I 
ENDROOT
TORSDOF 0
ENDMDL
MODEL 4
REMARK VINA RESULT:      -2.4      2.519      2.848
REMARK  0 active torsions:
REMARK  status: ('A' for Active; 'I' for Inactive)
ROOT
HETATM    1  C1  UNL     1     -34.991   4.677   6.193  1.00 20.00     0.016 C 
HETATM    2  C2  UNL     1     -34.255   5.983   5.956  1.00 20.00     0.075 C 
HETATM    3  I3  UNL     1     -33.669   6.165   3.914  1.00 20.00    -0.090 I 
ENDROOT
TORSDOF 0
ENDMDL
MODEL 5
REMARK VINA RESULT:      -2.1      2.024      2.256
REMARK  0 active torsions:
REMARK  status: ('A' for Active; 'I' for Inactive)
ROOT
HETATM    1  C1  UNL     1     -32.225   7.623   2.564  1.00 20.00     0.016 C 
HETATM    2  C2  UNL     1     -32.253   6.275   3.262  1.00 20.00     0.075 C 
HETATM    3  I3  UNL     1     -34.189   5.874   4.060  1.00 20.00    -0.090 I 
ENDROOT
TORSDOF 0
ENDMDL
MODEL 6
REMARK VINA RESULT:      -1.9     12.294     12.434
REMARK  0 active torsions:
REMARK  status: ('A' for Active; 'I' for Inactive)
ROOT
HETATM    1  C1  UNL     1     -34.546  16.157  -1.783  1.00 20.00     0.016 C 
HETATM    2  C2  UNL     1     -33.691  15.894  -3.011  1.00 20.00     0.075 C 
HETATM    3  I3  UNL     1     -34.225  14.044  -3.926  1.00 20.00    -0.090 I 
ENDROOT
TORSDOF 0
ENDMDL
MODEL 7
REMARK VINA RESULT:      -1.8      8.937      9.301
REMARK  0 active torsions:
REMARK  status: ('A' for Active; 'I' for Inactive)
ROOT
HETATM    1  C1  UNL     1     -41.550   3.942  -2.113  1.00 20.00     0.016 C 
HETATM    2  C2  UNL     1     -40.828   4.744  -1.046  1.00 20.00     0.075 C 
HETATM    3  I3  UNL     1     -41.444   6.785  -1.083  1.00 20.00    -0.090 I 
ENDROOT
TORSDOF 0
ENDMDL
MODEL 8
REMARK VINA RESULT:      -1.8     12.152     12.403
REMARK  0 active torsions:
REMARK  status: ('A' for Active; 'I' for Inactive)
ROOT
HETATM    1  C1  UNL     1     -33.614  13.840  -3.779  1.00 20.00     0.016 C 
HETATM    2  C2  UNL     1     -33.187  15.288  -3.610  1.00 20.00     0.075 C 
HETATM    3  I3  UNL     1     -34.476  16.306  -2.251  1.00 20.00    -0.090 I 
ENDROOT
TORSDOF 0
ENDMDL
MODEL 9
REMARK VINA RESULT:      -1.8     12.735     12.849
REMARK  0 active torsions:
REMARK  status: ('A' for Active; 'I' for Inactive)
ROOT
HETATM    1  C1  UNL     1     -33.641  13.726  -3.878  1.00 20.00     0.016 C 
HETATM    2  C2  UNL     1     -34.682  13.307  -4.902  1.00 20.00     0.075 C 
HETATM    3  I3  UNL     1     -34.910  14.799  -6.407  1.00 20.00    -0.090 I 
ENDROOT
TORSDOF 0
ENDMDL
