MODEL 1
REMARK VINA RESULT:      -5.8      0.000      0.000
REMARK  2 active torsions:
REMARK  status: ('A' for Active; 'I' for Inactive)
REMARK    1  A    between atoms: C6_6  and  C9_9 
REMARK    2  A    between atoms: C9_9  and  C10_10 
ROOT
HETATM    1  C1  UNL     1     -35.130   4.887   6.314  1.00 20.00     0.000 A 
HETATM    2  C2  UNL     1     -34.324   6.021   6.420  1.00 20.00     0.001 A 
HETATM    3  C3  UNL     1     -35.251   4.229   5.091  1.00 20.00     0.001 A 
HETATM    4  C4  UNL     1     -33.641   6.497   5.302  1.00 20.00     0.007 A 
HETATM    5  C5  UNL     1     -34.567   4.706   3.972  1.00 20.00     0.007 A 
HETATM    6  C6  UNL     1     -33.762   5.839   4.078  1.00 20.00    -0.058 A 
ENDROOT
BRANCH   6   7
HETATM    7  C9  UNL     1     -33.023   6.355   2.867  1.00 20.00     0.042 C 
BRANCH   7   8
HETATM    8  C10 UNL     1     -32.346   7.723   3.085  1.00 20.00    -0.019 C 
HETATM    9  C7  UNL     1     -31.010   7.590   3.819  1.00 20.00     0.010 C 
HETATM   10  C8  UNL     1     -32.128   8.414   1.737  1.00 20.00     0.010 C 
ENDBRANCH   7   8
ENDBRANCH   6   7
TORSDOF 2
ENDMDL
MODEL 2
REMARK VINA RESULT:      -5.8      0.021      1.528
REMARK  2 active torsions:
REMARK  status: ('A' for Active; 'I' for Inactive)
REMARK    1  A    between atoms: C6_6  and  C9_9 
REMARK    2  A    between atoms: C9_9  and  C10_10 
ROOT
HETATM    1  C1  UNL     1     -35.125   4.882   6.312  1.00 20.00     0.000 A 
HETATM    2  C2  UNL     1     -35.227   4.213   5.093  1.00 20.00     0.001 A 
HETATM    3  C3  UNL     1     -34.335   6.028   6.415  1.00 20.00     0.001 A 
HETATM    4  C4  UNL     1     -34.539   4.689   3.977  1.00 20.00     0.007 A 
HETATM    5  C5  UNL     1     -33.647   6.503   5.298  1.00 20.00     0.007 A 
HETATM    6  C6  UNL     1     -33.750   5.834   4.079  1.00 20.00    -0.058 A 
ENDROOT
BRANCH   6   7
HETATM    7  C9  UNL     1     -33.005   6.348   2.872  1.00 20.00     0.042 C 
BRANCH   7   8
HETATM    8  C10 UNL     1     -32.352   7.729   3.083  1.00 20.00    -0.019 C 
HETATM    9  C7  UNL     1     -31.020   7.626   3.829  1.00 20.00     0.010 C 
HETATM   10  C8  UNL     1     -32.133   8.411   1.730  1.00 20.00     0.010 C 
ENDBRANCH   7   8
ENDBRANCH   6   7
TORSDOF 2
ENDMDL
MODEL 3
REMARK VINA RESULT:      -5.5      0.920      1.636
REMARK  2 active torsions:
REMARK  status: ('A' for Active; 'I' for Inactive)
REMARK    1  A    between atoms: C6_6  and  C9_9 
REMARK    2  A    between atoms: C9_9  and  C10_10 
ROOT
HETATM    1  C1  UNL     1     -34.949   5.171   4.981  1.00 20.00     0.000 A 
HETATM    2  C2  UNL     1     -34.165   6.060   5.716  1.00 20.00     0.001 A 
HETATM    3  C3  UNL     1     -34.763   5.049   3.604  1.00 20.00     0.001 A 
HETATM    4  C4  UNL     1     -33.194   6.827   5.074  1.00 20.00     0.007 A 
HETATM    5  C5  UNL     1     -33.791   5.817   2.962  1.00 20.00     0.007 A 
HETATM    6  C6  UNL     1     -33.007   6.706   3.697  1.00 20.00    -0.058 A 
ENDROOT
BRANCH   6   7
HETATM    7  C9  UNL     1     -31.956   7.537   3.002  1.00 20.00     0.042 C 
BRANCH   7   8
HETATM    8  C10 UNL     1     -32.507   8.405   1.852  1.00 20.00    -0.019 C 
HETATM    9  C7  UNL     1     -32.763   9.847   2.294  1.00 20.00     0.010 C 
HETATM   10  C8  UNL     1     -31.527   8.391   0.677  1.00 20.00     0.010 C 
ENDBRANCH   7   8
ENDBRANCH   6   7
TORSDOF 2
ENDMDL
MODEL 4
REMARK VINA RESULT:      -4.9     11.406     12.110
REMARK  2 active torsions:
REMARK  status: ('A' for Active; 'I' for Inactive)
REMARK    1  A    between atoms: C6_6  and  C9_9 
REMARK    2  A    between atoms: C9_9  and  C10_10 
ROOT
HETATM    1  C1  UNL     1     -34.691  13.433  -4.324  1.00 20.00     0.000 A 
HETATM    2  C2  UNL     1     -33.566  14.064  -3.794  1.00 20.00     0.001 A 
HETATM    3  C3  UNL     1     -35.961  13.965  -4.098  1.00 20.00     0.001 A 
HETATM    4  C4  UNL     1     -33.710  15.227  -3.038  1.00 20.00     0.007 A 
HETATM    5  C5  UNL     1     -36.105  15.128  -3.340  1.00 20.00     0.007 A 
HETATM    6  C6  UNL     1     -34.979  15.759  -2.811  1.00 20.00    -0.058 A 
ENDROOT
BRANCH   6   7
HETATM    7  C9  UNL     1     -35.136  17.016  -1.991  1.00 20.00     0.042 C 
BRANCH   7   8
HETATM    8  C10 UNL     1     -34.258  17.048  -0.724  1.00 20.00    -0.019 C 
HETATM    9  C7  UNL     1     -33.174  18.126  -0.805  1.00 20.00     0.010 C 
HETATM   10  C8  UNL     1     -35.134  17.289   0.508  1.00 20.00     0.010 C 
ENDBRANCH   7   8
ENDBRANCH   6   7
TORSDOF 2
ENDMDL
MODEL 5
REMARK VINA RESULT:      -4.8     11.281     12.604
REMARK  2 active torsions:
REMARK  status: ('A' for Active; 'I' for Inactive)
REMARK    1  A    between atoms: C6_6  and  C9_9 
REMARK    2  A    between atoms: C9_9  and  C10_10 
ROOT
HETATM    1  C1  UNL     1     -34.804  13.754  -5.792  1.00 20.00     0.000 A 
HETATM    2  C2  UNL     1     -34.419  15.074  -6.025  1.00 20.00     0.001 A 
HETATM    3  C3  UNL     1     -34.840  13.257  -4.489  1.00 20.00     0.001 A 
HETATM    4  C4  UNL     1     -34.068  15.897  -4.955  1.00 20.00     0.007 A 
HETATM    5  C5  UNL     1     -34.489  14.081  -3.419  1.00 20.00     0.007 A 
HETATM    6  C6  UNL     1     -34.103  15.400  -3.652  1.00 20.00    -0.058 A 
ENDROOT
BRANCH   6   7
HETATM    7  C9  UNL     1     -33.723  16.291  -2.494  1.00 20.00     0.042 C 
BRANCH   7   8
HETATM    8  C10 UNL     1     -34.872  16.545  -1.499  1.00 20.00    -0.019 C 
HETATM    9  C7  UNL     1     -34.397  17.302  -0.256  1.00 20.00     0.010 C 
HETATM   10  C8  UNL     1     -35.989  17.334  -2.187  1.00 20.00     0.010 C 
ENDBRANCH   7   8
ENDBRANCH   6   7
TORSDOF 2
ENDMDL
MODEL 6
REMARK VINA RESULT:      -4.7     11.267     12.622
REMARK  2 active torsions:
REMARK  status: ('A' for Active; 'I' for Inactive)
REMARK    1  A    between atoms: C6_6  and  C9_9 
REMARK    2  A    between atoms: C9_9  and  C10_10 
ROOT
HETATM    1  C1  UNL     1     -34.794  13.736  -5.779  1.00 20.00     0.000 A 
HETATM    2  C2  UNL     1     -34.807  13.242  -4.475  1.00 20.00     0.001 A 
HETATM    3  C3  UNL     1     -34.431  15.062  -6.019  1.00 20.00     0.001 A 
HETATM    4  C4  UNL     1     -34.458  14.073  -3.411  1.00 20.00     0.007 A 
HETATM    5  C5  UNL     1     -34.082  15.893  -4.954  1.00 20.00     0.007 A 
HETATM    6  C6  UNL     1     -34.095  15.398  -3.651  1.00 20.00    -0.058 A 
ENDROOT
BRANCH   6   7
HETATM    7  C9  UNL     1     -33.719  16.298  -2.499  1.00 20.00     0.042 C 
BRANCH   7   8
HETATM    8  C10 UNL     1     -34.869  16.553  -1.505  1.00 20.00    -0.019 C 
HETATM    9  C7  UNL     1     -34.388  17.272  -0.243  1.00 20.00     0.010 C 
HETATM   10  C8  UNL     1     -35.966  17.378  -2.182  1.00 20.00     0.010 C 
ENDBRANCH   7   8
ENDBRANCH   6   7
TORSDOF 2
ENDMDL
MODEL 7
REMARK VINA RESULT:      -4.7      9.911     11.409
REMARK  2 active torsions:
REMARK  status: ('A' for Active; 'I' for Inactive)
REMARK    1  A    between atoms: C6_6  and  C9_9 
REMARK    2  A    between atoms: C9_9  and  C10_10 
ROOT
HETATM    1  C1  UNL     1     -41.034   6.972  -0.917  1.00 20.00     0.000 A 
HETATM    2  C2  UNL     1     -41.928   7.250  -1.950  1.00 20.00     0.001 A 
HETATM    3  C3  UNL     1     -40.695   5.652  -0.624  1.00 20.00     0.001 A 
HETATM    4  C4  UNL     1     -42.484   6.207  -2.690  1.00 20.00     0.007 A 
HETATM    5  C5  UNL     1     -41.251   4.608  -1.364  1.00 20.00     0.007 A 
HETATM    6  C6  UNL     1     -42.145   4.886  -2.398  1.00 20.00    -0.058 A 
ENDROOT
BRANCH   6   7
HETATM    7  C9  UNL     1     -42.748   3.757  -3.198  1.00 20.00     0.042 C 
BRANCH   7   8
HETATM    8  C10 UNL     1     -42.161   2.372  -2.862  1.00 20.00    -0.019 C 
HETATM    9  C7  UNL     1     -43.254   1.343  -2.563  1.00 20.00     0.010 C 
HETATM   10  C8  UNL     1     -41.294   1.880  -4.024  1.00 20.00     0.010 C 
ENDBRANCH   7   8
ENDBRANCH   6   7
TORSDOF 2
ENDMDL
MODEL 8
REMARK VINA RESULT:      -4.6     11.350     12.480
REMARK  2 active torsions:
REMARK  status: ('A' for Active; 'I' for Inactive)
REMARK    1  A    between atoms: C6_6  and  C9_9 
REMARK    2  A    between atoms: C9_9  and  C10_10 
ROOT
HETATM    1  C1  UNL     1     -34.093  18.425   0.578  1.00 20.00     0.000 A 
HETATM    2  C2  UNL     1     -33.303  18.924  -0.457  1.00 20.00     0.001 A 
HETATM    3  C3  UNL     1     -34.816  17.246   0.399  1.00 20.00     0.001 A 
HETATM    4  C4  UNL     1     -33.238  18.244  -1.673  1.00 20.00     0.007 A 
HETATM    5  C5  UNL     1     -34.750  16.566  -0.818  1.00 20.00     0.007 A 
HETATM    6  C6  UNL     1     -33.961  17.065  -1.853  1.00 20.00    -0.058 A 
ENDROOT
BRANCH   6   7
HETATM    7  C9  UNL     1     -33.890  16.330  -3.170  1.00 20.00     0.042 C 
BRANCH   7   8
HETATM    8  C10 UNL     1     -34.369  14.867  -3.094  1.00 20.00    -0.019 C 
HETATM    9  C7  UNL     1     -35.724  14.671  -3.777  1.00 20.00     0.010 C 
HETATM   10  C8  UNL     1     -33.329  13.947  -3.738  1.00 20.00     0.010 C 
ENDBRANCH   7   8
ENDBRANCH   6   7
TORSDOF 2
ENDMDL
MODEL 9
REMARK VINA RESULT:      -4.6     11.464     12.547
REMARK  2 active torsions:
REMARK  status: ('A' for Active; 'I' for Inactive)
REMARK    1  A    between atoms: C6_6  and  C9_9 
REMARK    2  A    between atoms: C9_9  and  C10_10 
ROOT
HETATM    1  C1  UNL     1     -34.149  18.511   1.561  1.00 20.00     0.000 A 
HETATM    2  C2  UNL     1     -35.073  17.556   1.137  1.00 20.00     0.001 A 
HETATM    3  C3  UNL     1     -33.091  18.875   0.728  1.00 20.00     0.001 A 
HETATM    4  C4  UNL     1     -34.939  16.965  -0.119  1.00 20.00     0.007 A 
HETATM    5  C5  UNL     1     -32.958  18.284  -0.529  1.00 20.00     0.007 A 
HETATM    6  C6  UNL     1     -33.882  17.329  -0.952  1.00 20.00    -0.058 A 
ENDROOT
BRANCH   6   7
HETATM    7  C9  UNL     1     -33.736  16.689  -2.311  1.00 20.00     0.042 C 
BRANCH   7   8
HETATM    8  C10 UNL     1     -34.875  15.713  -2.666  1.00 20.00    -0.019 C 
HETATM    9  C7  UNL     1     -35.919  16.358  -3.581  1.00 20.00     0.010 C 
HETATM   10  C8  UNL     1     -34.298  14.466  -3.341  1.00 20.00     0.010 C 
ENDBRANCH   7   8
ENDBRANCH   6   7
TORSDOF 2
ENDMDL
