MODEL 1
REMARK VINA RESULT:      -5.7      0.000      0.000
REMARK  0 active torsions:
REMARK  status: ('A' for Active; 'I' for Inactive)
ROOT
HETATM    1  C1  UNL     1     -35.184   4.257   5.907  1.00 20.00     0.001 A 
HETATM    2  C2  UNL     1     -35.061   4.292   4.518  1.00 20.00     0.007 A 
HETATM    3  C3  UNL     1     -34.641   5.282   6.682  1.00 20.00     0.007 A 
HETATM    4  C4  UNL     1     -33.853   6.378   4.678  1.00 20.00     0.013 A 
HETATM    5  C5  UNL     1     -34.395   5.353   3.904  1.00 20.00    -0.061 A 
HETATM    6  C6  UNL     1     -33.975   6.343   6.066  1.00 20.00    -0.061 A 
HETATM    7  C7  UNL     1     -34.266   5.391   2.418  1.00 20.00     0.048 C 
HETATM    8  C8  UNL     1     -33.394   7.439   6.895  1.00 20.00     0.048 C 
ENDROOT
TORSDOF 0
ENDMDL
MODEL 2
REMARK VINA RESULT:      -5.7      0.005      3.028
REMARK  0 active torsions:
REMARK  status: ('A' for Active; 'I' for Inactive)
ROOT
HETATM    1  C1  UNL     1     -35.184   4.257   5.908  1.00 20.00     0.001 A 
HETATM    2  C2  UNL     1     -34.644   5.284   6.683  1.00 20.00     0.007 A 
HETATM    3  C3  UNL     1     -35.058   4.290   4.519  1.00 20.00     0.007 A 
HETATM    4  C4  UNL     1     -33.853   6.378   4.680  1.00 20.00     0.013 A 
HETATM    5  C5  UNL     1     -33.979   6.344   6.068  1.00 20.00    -0.061 A 
HETATM    6  C6  UNL     1     -34.392   5.352   3.905  1.00 20.00    -0.061 A 
HETATM    7  C7  UNL     1     -33.401   7.442   6.898  1.00 20.00     0.048 C 
HETATM    8  C8  UNL     1     -34.258   5.388   2.420  1.00 20.00     0.048 C 
ENDROOT
TORSDOF 0
ENDMDL
MODEL 3
REMARK VINA RESULT:      -5.1      1.290      2.497
REMARK  0 active torsions:
REMARK  status: ('A' for Active; 'I' for Inactive)
ROOT
HETATM    1  C1  UNL     1     -34.597   5.160   2.891  1.00 20.00     0.001 A 
HETATM    2  C2  UNL     1     -33.496   5.978   2.637  1.00 20.00     0.007 A 
HETATM    3  C3  UNL     1     -35.037   4.968   4.201  1.00 20.00     0.007 A 
HETATM    4  C4  UNL     1     -33.273   6.411   5.003  1.00 20.00     0.013 A 
HETATM    5  C5  UNL     1     -32.834   6.603   3.693  1.00 20.00    -0.061 A 
HETATM    6  C6  UNL     1     -34.374   5.594   5.257  1.00 20.00    -0.061 A 
HETATM    7  C7  UNL     1     -31.657   7.478   3.421  1.00 20.00     0.048 C 
HETATM    8  C8  UNL     1     -34.844   5.388   6.658  1.00 20.00     0.048 C 
ENDROOT
TORSDOF 0
ENDMDL
MODEL 4
REMARK VINA RESULT:      -5.1      1.283      2.984
REMARK  0 active torsions:
REMARK  status: ('A' for Active; 'I' for Inactive)
ROOT
HETATM    1  C1  UNL     1     -34.594   5.155   2.880  1.00 20.00     0.001 A 
HETATM    2  C2  UNL     1     -35.045   4.952   4.184  1.00 20.00     0.007 A 
HETATM    3  C3  UNL     1     -33.493   5.978   2.642  1.00 20.00     0.007 A 
HETATM    4  C4  UNL     1     -33.294   6.395   5.013  1.00 20.00     0.013 A 
HETATM    5  C5  UNL     1     -34.395   5.572   5.251  1.00 20.00    -0.061 A 
HETATM    6  C6  UNL     1     -32.843   6.598   3.709  1.00 20.00    -0.061 A 
HETATM    7  C7  UNL     1     -34.876   5.354   6.646  1.00 20.00     0.048 C 
HETATM    8  C8  UNL     1     -31.666   7.479   3.455  1.00 20.00     0.048 C 
ENDROOT
TORSDOF 0
ENDMDL
MODEL 5
REMARK VINA RESULT:      -4.8      1.250      2.715
REMARK  0 active torsions:
REMARK  status: ('A' for Active; 'I' for Inactive)
ROOT
HETATM    1  C1  UNL     1     -33.609   6.916   6.449  1.00 20.00     0.001 A 
HETATM    2  C2  UNL     1     -32.943   7.360   5.307  1.00 20.00     0.007 A 
HETATM    3  C3  UNL     1     -34.398   5.766   6.394  1.00 20.00     0.007 A 
HETATM    4  C4  UNL     1     -33.852   5.505   4.056  1.00 20.00     0.013 A 
HETATM    5  C5  UNL     1     -33.064   6.654   4.110  1.00 20.00    -0.061 A 
HETATM    6  C6  UNL     1     -34.519   5.061   5.197  1.00 20.00    -0.061 A 
HETATM    7  C7  UNL     1     -32.350   7.129   2.890  1.00 20.00     0.048 C 
HETATM    8  C8  UNL     1     -35.362   3.832   5.138  1.00 20.00     0.048 C 
ENDROOT
TORSDOF 0
ENDMDL
MODEL 6
REMARK VINA RESULT:      -4.8      1.251      2.762
REMARK  0 active torsions:
REMARK  status: ('A' for Active; 'I' for Inactive)
ROOT
HETATM    1  C1  UNL     1     -33.608   6.916   6.450  1.00 20.00     0.001 A 
HETATM    2  C2  UNL     1     -34.396   5.766   6.394  1.00 20.00     0.007 A 
HETATM    3  C3  UNL     1     -32.942   7.361   5.308  1.00 20.00     0.007 A 
HETATM    4  C4  UNL     1     -33.851   5.506   4.055  1.00 20.00     0.013 A 
HETATM    5  C5  UNL     1     -34.517   5.061   5.197  1.00 20.00    -0.061 A 
HETATM    6  C6  UNL     1     -33.063   6.655   4.110  1.00 20.00    -0.061 A 
HETATM    7  C7  UNL     1     -35.361   3.832   5.138  1.00 20.00     0.048 C 
HETATM    8  C8  UNL     1     -32.350   7.130   2.889  1.00 20.00     0.048 C 
ENDROOT
TORSDOF 0
ENDMDL
MODEL 7
REMARK VINA RESULT:      -4.2      8.744     10.362
REMARK  0 active torsions:
REMARK  status: ('A' for Active; 'I' for Inactive)
ROOT
HETATM    1  C1  UNL     1     -40.651   5.934  -0.412  1.00 20.00     0.001 A 
HETATM    2  C2  UNL     1     -40.833   4.661  -0.951  1.00 20.00     0.007 A 
HETATM    3  C3  UNL     1     -41.290   7.033  -0.987  1.00 20.00     0.007 A 
HETATM    4  C4  UNL     1     -42.292   5.584  -2.640  1.00 20.00     0.013 A 
HETATM    5  C5  UNL     1     -41.653   4.486  -2.065  1.00 20.00    -0.061 A 
HETATM    6  C6  UNL     1     -42.111   6.857  -2.101  1.00 20.00    -0.061 A 
HETATM    7  C7  UNL     1     -41.849   3.123  -2.640  1.00 20.00     0.048 C 
HETATM    8  C8  UNL     1     -42.793   8.032  -2.717  1.00 20.00     0.048 C 
ENDROOT
TORSDOF 0
ENDMDL
MODEL 8
REMARK VINA RESULT:      -4.2      8.751     10.528
REMARK  0 active torsions:
REMARK  status: ('A' for Active; 'I' for Inactive)
ROOT
HETATM    1  C1  UNL     1     -40.647   5.922  -0.430  1.00 20.00     0.001 A 
HETATM    2  C2  UNL     1     -41.277   7.022  -1.011  1.00 20.00     0.007 A 
HETATM    3  C3  UNL     1     -40.840   4.646  -0.961  1.00 20.00     0.007 A 
HETATM    4  C4  UNL     1     -42.294   5.572  -2.653  1.00 20.00     0.013 A 
HETATM    5  C5  UNL     1     -42.101   6.847  -2.122  1.00 20.00    -0.061 A 
HETATM    6  C6  UNL     1     -41.664   4.472  -2.073  1.00 20.00    -0.061 A 
HETATM    7  C7  UNL     1     -42.774   8.025  -2.744  1.00 20.00     0.048 C 
HETATM    8  C8  UNL     1     -41.872   3.108  -2.640  1.00 20.00     0.048 C 
ENDROOT
TORSDOF 0
ENDMDL
MODEL 9
REMARK VINA RESULT:      -4.1     12.428     13.820
REMARK  0 active torsions:
REMARK  status: ('A' for Active; 'I' for Inactive)
ROOT
HETATM    1  C1  UNL     1     -33.514  16.911  -4.639  1.00 20.00     0.001 A 
HETATM    2  C2  UNL     1     -33.778  17.216  -3.303  1.00 20.00     0.007 A 
HETATM    3  C3  UNL     1     -33.773  15.631  -5.127  1.00 20.00     0.007 A 
HETATM    4  C4  UNL     1     -34.560  14.959  -2.943  1.00 20.00     0.013 A 
HETATM    5  C5  UNL     1     -34.301  16.240  -2.456  1.00 20.00    -0.061 A 
HETATM    6  C6  UNL     1     -34.297  14.654  -4.278  1.00 20.00    -0.061 A 
HETATM    7  C7  UNL     1     -34.585  16.567  -1.028  1.00 20.00     0.048 C 
HETATM    8  C8  UNL     1     -34.573  13.284  -4.800  1.00 20.00     0.048 C 
ENDROOT
TORSDOF 0
ENDMDL
