MODEL 1
REMARK VINA RESULT:      -5.4      0.000      0.000
REMARK  0 active torsions:
REMARK  status: ('A' for Active; 'I' for Inactive)
ROOT
HETATM    1  C1  UNL     1     -34.983   4.694   5.923  1.00 20.00     0.000 C 
HETATM    2  C2  UNL     1     -35.479   4.757   4.481  1.00 20.00     0.000 C 
HETATM    3  C3  UNL     1     -34.379   6.022   6.366  1.00 20.00     0.000 C 
HETATM    4  C4  UNL     1     -34.381   5.218   3.526  1.00 20.00     0.004 C 
HETATM    5  C5  UNL     1     -33.278   6.486   5.414  1.00 20.00     0.004 C 
HETATM    6  C6  UNL     1     -33.775   6.559   3.964  1.00 20.00    -0.018 C 
HETATM    7  C7  UNL     1     -32.644   6.972   3.025  1.00 20.00     0.010 C 
ENDROOT
TORSDOF 0
ENDMDL
MODEL 2
REMARK VINA RESULT:      -5.1      0.472      1.963
REMARK  0 active torsions:
REMARK  status: ('A' for Active; 'I' for Inactive)
ROOT
HETATM    1  C1  UNL     1     -35.297   4.920   5.945  1.00 20.00     0.000 C 
HETATM    2  C2  UNL     1     -34.063   5.677   6.426  1.00 20.00     0.000 C 
HETATM    3  C3  UNL     1     -35.054   4.252   4.596  1.00 20.00     0.000 C 
HETATM    4  C4  UNL     1     -33.578   6.682   5.384  1.00 20.00     0.004 C 
HETATM    5  C5  UNL     1     -34.570   5.254   3.550  1.00 20.00     0.004 C 
HETATM    6  C6  UNL     1     -33.324   6.012   4.026  1.00 20.00    -0.018 C 
HETATM    7  C7  UNL     1     -32.891   7.045   2.988  1.00 20.00     0.010 C 
ENDROOT
TORSDOF 0
ENDMDL
MODEL 3
REMARK VINA RESULT:      -5.0      0.943      2.471
REMARK  0 active torsions:
REMARK  status: ('A' for Active; 'I' for Inactive)
ROOT
HETATM    1  C1  UNL     1     -35.361   4.623   4.163  1.00 20.00     0.000 C 
HETATM    2  C2  UNL     1     -35.007   4.157   5.572  1.00 20.00     0.000 C 
HETATM    3  C3  UNL     1     -34.287   5.540   3.589  1.00 20.00     0.000 C 
HETATM    4  C4  UNL     1     -34.723   5.334   6.501  1.00 20.00     0.004 C 
HETATM    5  C5  UNL     1     -34.001   6.721   4.515  1.00 20.00     0.004 C 
HETATM    6  C6  UNL     1     -33.636   6.256   5.931  1.00 20.00    -0.018 C 
HETATM    7  C7  UNL     1     -33.408   7.454   6.851  1.00 20.00     0.010 C 
ENDROOT
TORSDOF 0
ENDMDL
MODEL 4
REMARK VINA RESULT:      -5.0      1.038      2.215
REMARK  0 active torsions:
REMARK  status: ('A' for Active; 'I' for Inactive)
ROOT
HETATM    1  C1  UNL     1     -34.930   4.066   4.353  1.00 20.00     0.000 C 
HETATM    2  C2  UNL     1     -34.869   5.459   3.732  1.00 20.00     0.000 C 
HETATM    3  C3  UNL     1     -35.267   4.131   5.839  1.00 20.00     0.000 C 
HETATM    4  C4  UNL     1     -33.902   6.370   4.485  1.00 20.00     0.004 C 
HETATM    5  C5  UNL     1     -34.301   5.040   6.597  1.00 20.00     0.004 C 
HETATM    6  C6  UNL     1     -34.242   6.444   5.980  1.00 20.00    -0.018 C 
HETATM    7  C7  UNL     1     -33.232   7.317   6.720  1.00 20.00     0.010 C 
ENDROOT
TORSDOF 0
ENDMDL
MODEL 5
REMARK VINA RESULT:      -4.8      0.988      1.501
REMARK  0 active torsions:
REMARK  status: ('A' for Active; 'I' for Inactive)
ROOT
HETATM    1  C1  UNL     1     -34.229   5.137   6.709  1.00 20.00     0.000 C 
HETATM    2  C2  UNL     1     -35.273   4.300   5.977  1.00 20.00     0.000 C 
HETATM    3  C3  UNL     1     -34.031   6.494   6.042  1.00 20.00     0.000 C 
HETATM    4  C4  UNL     1     -34.939   4.151   4.495  1.00 20.00     0.004 C 
HETATM    5  C5  UNL     1     -33.695   6.350   4.558  1.00 20.00     0.004 C 
HETATM    6  C6  UNL     1     -34.748   5.514   3.818  1.00 20.00    -0.018 C 
HETATM    7  C7  UNL     1     -34.362   5.339   2.351  1.00 20.00     0.010 C 
ENDROOT
TORSDOF 0
ENDMDL
MODEL 6
REMARK VINA RESULT:      -4.6      0.923      2.168
REMARK  0 active torsions:
REMARK  status: ('A' for Active; 'I' for Inactive)
ROOT
HETATM    1  C1  UNL     1     -34.755   5.604   6.694  1.00 20.00     0.000 C 
HETATM    2  C2  UNL     1     -33.664   6.446   6.040  1.00 20.00     0.000 C 
HETATM    3  C3  UNL     1     -34.913   4.255   6.001  1.00 20.00     0.000 C 
HETATM    4  C4  UNL     1     -33.901   6.611   4.541  1.00 20.00     0.004 C 
HETATM    5  C5  UNL     1     -35.153   4.416   4.501  1.00 20.00     0.004 C 
HETATM    6  C6  UNL     1     -34.053   5.256   3.838  1.00 20.00    -0.018 C 
HETATM    7  C7  UNL     1     -34.343   5.447   2.351  1.00 20.00     0.010 C 
ENDROOT
TORSDOF 0
ENDMDL
MODEL 7
REMARK VINA RESULT:      -4.3      0.786      2.827
REMARK  0 active torsions:
REMARK  status: ('A' for Active; 'I' for Inactive)
ROOT
HETATM    1  C1  UNL     1     -33.683   6.718   3.168  1.00 20.00     0.000 C 
HETATM    2  C2  UNL     1     -34.322   5.353   2.934  1.00 20.00     0.000 C 
HETATM    3  C3  UNL     1     -32.896   6.753   4.474  1.00 20.00     0.000 C 
HETATM    4  C4  UNL     1     -35.185   4.924   4.118  1.00 20.00     0.004 C 
HETATM    5  C5  UNL     1     -33.756   6.326   5.662  1.00 20.00     0.004 C 
HETATM    6  C6  UNL     1     -34.394   4.949   5.434  1.00 20.00    -0.018 C 
HETATM    7  C7  UNL     1     -35.291   4.569   6.610  1.00 20.00     0.010 C 
ENDROOT
TORSDOF 0
ENDMDL
MODEL 8
REMARK VINA RESULT:      -4.2      0.829      3.375
REMARK  0 active torsions:
REMARK  status: ('A' for Active; 'I' for Inactive)
ROOT
HETATM    1  C1  UNL     1     -33.095   6.106   3.108  1.00 20.00     0.000 C 
HETATM    2  C2  UNL     1     -33.133   6.964   4.369  1.00 20.00     0.000 C 
HETATM    3  C3  UNL     1     -34.418   5.380   2.885  1.00 20.00     0.000 C 
HETATM    4  C4  UNL     1     -33.537   6.149   5.595  1.00 20.00     0.004 C 
HETATM    5  C5  UNL     1     -34.825   4.561   4.109  1.00 20.00     0.004 C 
HETATM    6  C6  UNL     1     -34.872   5.424   5.378  1.00 20.00    -0.018 C 
HETATM    7  C7  UNL     1     -35.229   4.573   6.595  1.00 20.00     0.010 C 
ENDROOT
TORSDOF 0
ENDMDL
MODEL 9
REMARK VINA RESULT:      -3.9      8.808     10.129
REMARK  0 active torsions:
REMARK  status: ('A' for Active; 'I' for Inactive)
ROOT
HETATM    1  C1  UNL     1     -41.147   7.216  -0.937  1.00 20.00     0.000 C 
HETATM    2  C2  UNL     1     -40.799   5.976  -0.118  1.00 20.00     0.000 C 
HETATM    3  C3  UNL     1     -42.421   7.010  -1.750  1.00 20.00     0.000 C 
HETATM    4  C4  UNL     1     -40.710   4.729  -0.992  1.00 20.00     0.004 C 
HETATM    5  C5  UNL     1     -42.335   5.763  -2.628  1.00 20.00     0.004 C 
HETATM    6  C6  UNL     1     -41.994   4.514  -1.806  1.00 20.00    -0.018 C 
HETATM    7  C7  UNL     1     -41.860   3.292  -2.712  1.00 20.00     0.010 C 
ENDROOT
TORSDOF 0
ENDMDL
