MODEL 1
REMARK VINA RESULT:      -5.9      0.000      0.000
REMARK  1 active torsions:
REMARK  status: ('A' for Active; 'I' for Inactive)
REMARK    1  A    between atoms: C2_2  and  C8_8 
ROOT
HETATM    1  C1  UNL     1     -34.118   6.126   5.888  1.00 20.00    -0.081 C 
HETATM    2  C2  UNL     1     -34.106   5.977   4.554  1.00 20.00    -0.078 C 
HETATM    3  C3  UNL     1     -34.919   5.045   6.551  1.00 20.00     0.034 C 
HETATM    4  C4  UNL     1     -34.895   4.775   4.130  1.00 20.00     0.034 C 
HETATM    5  C5  UNL     1     -35.101   4.018   5.439  1.00 20.00     0.009 C 
HETATM    6  C6  UNL     1     -33.496   7.190   6.721  1.00 20.00     0.043 C 
ENDROOT
BRANCH   2   7
HETATM    7  C8  UNL     1     -33.465   6.832   3.517  1.00 20.00     0.030 C 
HETATM    8  C7  UNL     1     -32.122   6.260   3.107  1.00 20.00     0.010 C 
ENDBRANCH   2   7
TORSDOF 1
ENDMDL
MODEL 2
REMARK VINA RESULT:      -4.9      0.893      3.004
REMARK  1 active torsions:
REMARK  status: ('A' for Active; 'I' for Inactive)
REMARK    1  A    between atoms: C2_2  and  C8_8 
ROOT
HETATM    1  C1  UNL     1     -33.466   6.587   5.001  1.00 20.00    -0.081 C 
HETATM    2  C2  UNL     1     -34.166   5.728   4.244  1.00 20.00    -0.078 C 
HETATM    3  C3  UNL     1     -32.315   7.173   4.239  1.00 20.00     0.034 C 
HETATM    4  C4  UNL     1     -33.585   5.614   2.866  1.00 20.00     0.034 C 
HETATM    5  C5  UNL     1     -32.629   6.801   2.794  1.00 20.00     0.009 C 
HETATM    6  C6  UNL     1     -33.672   6.971   6.423  1.00 20.00     0.043 C 
ENDROOT
BRANCH   2   7
HETATM    7  C8  UNL     1     -35.354   4.907   4.605  1.00 20.00     0.030 C 
HETATM    8  C7  UNL     1     -34.999   3.895   5.676  1.00 20.00     0.010 C 
ENDBRANCH   2   7
TORSDOF 1
ENDMDL
MODEL 3
REMARK VINA RESULT:      -4.9      0.882      2.313
REMARK  1 active torsions:
REMARK  status: ('A' for Active; 'I' for Inactive)
REMARK    1  A    between atoms: C2_2  and  C8_8 
ROOT
HETATM    1  C1  UNL     1     -34.499   5.211   5.114  1.00 20.00    -0.081 C 
HETATM    2  C2  UNL     1     -33.674   6.062   4.484  1.00 20.00    -0.078 C 
HETATM    3  C3  UNL     1     -34.582   5.516   6.580  1.00 20.00     0.034 C 
HETATM    4  C4  UNL     1     -33.087   7.061   5.436  1.00 20.00     0.034 C 
HETATM    5  C5  UNL     1     -33.953   6.901   6.682  1.00 20.00     0.009 C 
HETATM    6  C6  UNL     1     -35.260   4.057   4.564  1.00 20.00     0.043 C 
ENDROOT
BRANCH   2   7
HETATM    7  C8  UNL     1     -33.281   6.103   3.049  1.00 20.00     0.030 C 
HETATM    8  C7  UNL     1     -32.228   7.168   2.813  1.00 20.00     0.010 C 
ENDBRANCH   2   7
TORSDOF 1
ENDMDL
MODEL 4
REMARK VINA RESULT:      -4.6      0.901      3.338
REMARK  1 active torsions:
REMARK  status: ('A' for Active; 'I' for Inactive)
REMARK    1  A    between atoms: C2_2  and  C8_8 
ROOT
HETATM    1  C1  UNL     1     -34.455   5.273   4.233  1.00 20.00    -0.081 C 
HETATM    2  C2  UNL     1     -33.860   6.168   5.037  1.00 20.00    -0.078 C 
HETATM    3  C3  UNL     1     -33.940   5.376   2.827  1.00 20.00     0.034 C 
HETATM    4  C4  UNL     1     -32.861   6.998   4.289  1.00 20.00     0.034 C 
HETATM    5  C5  UNL     1     -32.690   6.235   2.978  1.00 20.00     0.009 C 
HETATM    6  C6  UNL     1     -35.518   4.282   4.550  1.00 20.00     0.043 C 
ENDROOT
BRANCH   2   7
HETATM    7  C8  UNL     1     -34.088   6.430   6.484  1.00 20.00     0.030 C 
HETATM    8  C7  UNL     1     -33.215   7.572   6.966  1.00 20.00     0.010 C 
ENDBRANCH   2   7
TORSDOF 1
ENDMDL
MODEL 5
REMARK VINA RESULT:      -4.4      1.034      3.137
REMARK  1 active torsions:
REMARK  status: ('A' for Active; 'I' for Inactive)
REMARK    1  A    between atoms: C2_2  and  C8_8 
ROOT
HETATM    1  C1  UNL     1     -32.808   6.535   3.672  1.00 20.00    -0.081 C 
HETATM    2  C2  UNL     1     -33.756   6.151   4.541  1.00 20.00    -0.078 C 
HETATM    3  C3  UNL     1     -32.989   5.873   2.338  1.00 20.00     0.034 C 
HETATM    4  C4  UNL     1     -34.710   5.177   3.916  1.00 20.00     0.034 C 
HETATM    5  C5  UNL     1     -34.397   5.295   2.427  1.00 20.00     0.009 C 
HETATM    6  C6  UNL     1     -31.658   7.455   3.880  1.00 20.00     0.043 C 
ENDROOT
BRANCH   2   7
HETATM    7  C8  UNL     1     -33.936   6.534   5.968  1.00 20.00     0.030 C 
HETATM    8  C7  UNL     1     -34.722   5.473   6.712  1.00 20.00     0.010 C 
ENDBRANCH   2   7
TORSDOF 1
ENDMDL
MODEL 6
REMARK VINA RESULT:      -4.4      0.836      2.863
REMARK  1 active torsions:
REMARK  status: ('A' for Active; 'I' for Inactive)
REMARK    1  A    between atoms: C2_2  and  C8_8 
ROOT
HETATM    1  C1  UNL     1     -33.539   6.203   3.987  1.00 20.00    -0.081 C 
HETATM    2  C2  UNL     1     -33.783   6.171   5.306  1.00 20.00    -0.078 C 
HETATM    3  C3  UNL     1     -34.444   5.267   3.242  1.00 20.00     0.034 C 
HETATM    4  C4  UNL     1     -34.886   5.211   5.636  1.00 20.00     0.034 C 
HETATM    5  C5  UNL     1     -35.511   4.921   4.275  1.00 20.00     0.009 C 
HETATM    6  C6  UNL     1     -32.520   6.984   3.237  1.00 20.00     0.043 C 
ENDROOT
BRANCH   2   7
HETATM    7  C8  UNL     1     -33.105   6.910   6.406  1.00 20.00     0.030 C 
HETATM    8  C7  UNL     1     -34.121   7.621   7.279  1.00 20.00     0.010 C 
ENDBRANCH   2   7
TORSDOF 1
ENDMDL
MODEL 7
REMARK VINA RESULT:      -4.2     11.927     12.581
REMARK  1 active torsions:
REMARK  status: ('A' for Active; 'I' for Inactive)
REMARK    1  A    between atoms: C2_2  and  C8_8 
ROOT
HETATM    1  C1  UNL     1     -34.210  14.313  -3.525  1.00 20.00    -0.081 C 
HETATM    2  C2  UNL     1     -34.711  15.417  -2.947  1.00 20.00    -0.078 C 
HETATM    3  C3  UNL     1     -35.289  13.503  -4.181  1.00 20.00     0.034 C 
HETATM    4  C4  UNL     1     -36.196  15.507  -3.133  1.00 20.00     0.034 C 
HETATM    5  C5  UNL     1     -36.473  14.464  -4.213  1.00 20.00     0.009 C 
HETATM    6  C6  UNL     1     -32.807  13.821  -3.556  1.00 20.00     0.043 C 
ENDROOT
BRANCH   2   7
HETATM    7  C8  UNL     1     -34.008  16.473  -2.169  1.00 20.00     0.030 C 
HETATM    8  C7  UNL     1     -34.618  16.616  -0.789  1.00 20.00     0.010 C 
ENDBRANCH   2   7
TORSDOF 1
ENDMDL
MODEL 8
REMARK VINA RESULT:      -4.1     11.882     12.680
REMARK  1 active torsions:
REMARK  status: ('A' for Active; 'I' for Inactive)
REMARK    1  A    between atoms: C2_2  and  C8_8 
ROOT
HETATM    1  C1  UNL     1     -35.276  14.797  -3.528  1.00 20.00    -0.081 C 
HETATM    2  C2  UNL     1     -34.241  15.527  -3.083  1.00 20.00    -0.078 C 
HETATM    3  C3  UNL     1     -34.807  13.565  -4.244  1.00 20.00     0.034 C 
HETATM    4  C4  UNL     1     -32.930  14.889  -3.434  1.00 20.00     0.034 C 
HETATM    5  C5  UNL     1     -33.334  13.481  -3.860  1.00 20.00     0.009 C 
HETATM    6  C6  UNL     1     -36.735  15.073  -3.427  1.00 20.00     0.043 C 
ENDROOT
BRANCH   2   7
HETATM    7  C8  UNL     1     -34.249  16.825  -2.355  1.00 20.00     0.030 C 
HETATM    8  C7  UNL     1     -34.580  16.616  -0.890  1.00 20.00     0.010 C 
ENDBRANCH   2   7
TORSDOF 1
ENDMDL
MODEL 9
REMARK VINA RESULT:      -4.1      9.447     10.766
REMARK  1 active torsions:
REMARK  status: ('A' for Active; 'I' for Inactive)
REMARK    1  A    between atoms: C2_2  and  C8_8 
ROOT
HETATM    1  C1  UNL     1     -41.637   4.741  -1.966  1.00 20.00    -0.081 C 
HETATM    2  C2  UNL     1     -41.998   6.006  -2.233  1.00 20.00    -0.078 C 
HETATM    3  C3  UNL     1     -40.655   4.681  -0.834  1.00 20.00     0.034 C 
HETATM    4  C4  UNL     1     -41.312   6.976  -1.319  1.00 20.00     0.034 C 
HETATM    5  C5  UNL     1     -40.742   6.077  -0.226  1.00 20.00     0.009 C 
HETATM    6  C6  UNL     1     -42.049   3.481  -2.642  1.00 20.00     0.043 C 
ENDROOT
BRANCH   2   7
HETATM    7  C8  UNL     1     -42.918   6.519  -3.284  1.00 20.00     0.030 C 
HETATM    8  C7  UNL     1     -42.488   7.899  -3.744  1.00 20.00     0.010 C 
ENDBRANCH   2   7
TORSDOF 1
ENDMDL
