MODEL 1
REMARK VINA RESULT:      -6.3      0.000      0.000
REMARK  3 active torsions:
REMARK  status: ('A' for Active; 'I' for Inactive)
REMARK    1  A    between atoms: C6_6  and  C8_8 
REMARK    2  A    between atoms: C8_8  and  C10_10 
REMARK    3  A    between atoms: C9_9  and  C10_10 
ROOT
HETATM    1  C1  UNL     1     -34.926   5.285   6.360  1.00 20.00     0.000 A 
HETATM    2  C2  UNL     1     -35.240   4.607   5.182  1.00 20.00     0.001 A 
HETATM    3  C3  UNL     1     -33.992   6.321   6.340  1.00 20.00     0.001 A 
HETATM    4  C4  UNL     1     -34.619   4.964   3.985  1.00 20.00     0.007 A 
HETATM    5  C5  UNL     1     -33.371   6.677   5.143  1.00 20.00     0.007 A 
HETATM    6  C6  UNL     1     -33.685   5.999   3.965  1.00 20.00    -0.058 A 
ENDROOT
BRANCH   6   7
HETATM    7  C8  UNL     1     -33.013   6.385   2.672  1.00 20.00     0.038 C 
BRANCH   7   8
HETATM    8  C10 UNL     1     -32.072   7.578   2.862  1.00 20.00     0.004 C 
BRANCH   8   9
HETATM    9  C9  UNL     1     -31.863   8.334   1.549  1.00 20.00    -0.004 C 
HETATM   10  C7  UNL     1     -32.522   9.704   1.584  1.00 20.00     0.005 C 
ENDBRANCH   8   9
ENDBRANCH   7   8
ENDBRANCH   6   7
TORSDOF 3
ENDMDL
MODEL 2
REMARK VINA RESULT:      -6.3      0.035      1.528
REMARK  3 active torsions:
REMARK  status: ('A' for Active; 'I' for Inactive)
REMARK    1  A    between atoms: C6_6  and  C8_8 
REMARK    2  A    between atoms: C8_8  and  C10_10 
REMARK    3  A    between atoms: C9_9  and  C10_10 
ROOT
HETATM    1  C1  UNL     1     -34.902   5.315   6.369  1.00 20.00     0.000 A 
HETATM    2  C2  UNL     1     -33.963   6.348   6.347  1.00 20.00     0.001 A 
HETATM    3  C3  UNL     1     -35.216   4.635   5.192  1.00 20.00     0.001 A 
HETATM    4  C4  UNL     1     -33.341   6.699   5.149  1.00 20.00     0.007 A 
HETATM    5  C5  UNL     1     -34.594   4.987   3.995  1.00 20.00     0.007 A 
HETATM    6  C6  UNL     1     -33.656   6.018   3.973  1.00 20.00    -0.058 A 
ENDROOT
BRANCH   6   7
HETATM    7  C8  UNL     1     -32.984   6.398   2.678  1.00 20.00     0.038 C 
BRANCH   7   8
HETATM    8  C10 UNL     1     -32.049   7.597   2.860  1.00 20.00     0.004 C 
BRANCH   8   9
HETATM    9  C9  UNL     1     -31.865   8.362   1.549  1.00 20.00    -0.004 C 
HETATM   10  C7  UNL     1     -32.546   9.720   1.596  1.00 20.00     0.005 C 
ENDBRANCH   8   9
ENDBRANCH   7   8
ENDBRANCH   6   7
TORSDOF 3
ENDMDL
MODEL 3
REMARK VINA RESULT:      -4.8     10.943     11.672
REMARK  3 active torsions:
REMARK  status: ('A' for Active; 'I' for Inactive)
REMARK    1  A    between atoms: C6_6  and  C8_8 
REMARK    2  A    between atoms: C8_8  and  C10_10 
REMARK    3  A    between atoms: C9_9  and  C10_10 
ROOT
HETATM    1  C1  UNL     1     -35.036  13.349  -4.438  1.00 20.00     0.000 A 
HETATM    2  C2  UNL     1     -36.017  14.226  -3.973  1.00 20.00     0.001 A 
HETATM    3  C3  UNL     1     -33.698  13.564  -4.109  1.00 20.00     0.001 A 
HETATM    4  C4  UNL     1     -35.659  15.316  -3.180  1.00 20.00     0.007 A 
HETATM    5  C5  UNL     1     -33.340  14.655  -3.317  1.00 20.00     0.007 A 
HETATM    6  C6  UNL     1     -34.320  15.530  -2.852  1.00 20.00    -0.058 A 
ENDROOT
BRANCH   6   7
HETATM    7  C8  UNL     1     -33.932  16.709  -1.996  1.00 20.00     0.038 C 
BRANCH   7   8
HETATM    8  C10 UNL     1     -34.662  16.691  -0.650  1.00 20.00     0.004 C 
BRANCH   8   9
HETATM    9  C9  UNL     1     -34.212  17.850   0.241  1.00 20.00    -0.004 C 
HETATM   10  C7  UNL     1     -32.916  18.466  -0.259  1.00 20.00     0.005 C 
ENDBRANCH   8   9
ENDBRANCH   7   8
ENDBRANCH   6   7
TORSDOF 3
ENDMDL
MODEL 4
REMARK VINA RESULT:      -4.7     10.974     11.718
REMARK  3 active torsions:
REMARK  status: ('A' for Active; 'I' for Inactive)
REMARK    1  A    between atoms: C6_6  and  C8_8 
REMARK    2  A    between atoms: C8_8  and  C10_10 
REMARK    3  A    between atoms: C9_9  and  C10_10 
ROOT
HETATM    1  C1  UNL     1     -35.062  13.361  -4.455  1.00 20.00     0.000 A 
HETATM    2  C2  UNL     1     -33.717  13.570  -4.149  1.00 20.00     0.001 A 
HETATM    3  C3  UNL     1     -36.032  14.236  -3.967  1.00 20.00     0.001 A 
HETATM    4  C4  UNL     1     -33.343  14.655  -3.356  1.00 20.00     0.007 A 
HETATM    5  C5  UNL     1     -35.658  15.320  -3.172  1.00 20.00     0.007 A 
HETATM    6  C6  UNL     1     -34.313  15.530  -2.867  1.00 20.00    -0.058 A 
ENDROOT
BRANCH   6   7
HETATM    7  C8  UNL     1     -33.910  16.702  -2.009  1.00 20.00     0.038 C 
BRANCH   7   8
HETATM    8  C10 UNL     1     -34.661  16.706  -0.675  1.00 20.00     0.004 C 
BRANCH   8   9
HETATM    9  C9  UNL     1     -34.209  17.866   0.214  1.00 20.00    -0.004 C 
HETATM   10  C7  UNL     1     -32.965  18.541  -0.342  1.00 20.00     0.005 C 
ENDBRANCH   8   9
ENDBRANCH   7   8
ENDBRANCH   6   7
TORSDOF 3
ENDMDL
MODEL 5
REMARK VINA RESULT:      -4.6     10.891     12.221
REMARK  3 active torsions:
REMARK  status: ('A' for Active; 'I' for Inactive)
REMARK    1  A    between atoms: C6_6  and  C8_8 
REMARK    2  A    between atoms: C8_8  and  C10_10 
REMARK    3  A    between atoms: C9_9  and  C10_10 
ROOT
HETATM    1  C1  UNL     1     -34.799  13.799  -5.777  1.00 20.00     0.000 A 
HETATM    2  C2  UNL     1     -34.389  15.112  -6.010  1.00 20.00     0.001 A 
HETATM    3  C3  UNL     1     -34.867  13.312  -4.472  1.00 20.00     0.001 A 
HETATM    4  C4  UNL     1     -34.047  15.937  -4.939  1.00 20.00     0.007 A 
HETATM    5  C5  UNL     1     -34.524  14.137  -3.400  1.00 20.00     0.007 A 
HETATM    6  C6  UNL     1     -34.115  15.449  -3.633  1.00 20.00    -0.058 A 
ENDROOT
BRANCH   6   7
HETATM    7  C8  UNL     1     -33.744  16.340  -2.474  1.00 20.00     0.038 C 
BRANCH   7   8
HETATM    8  C10 UNL     1     -34.807  16.300  -1.374  1.00 20.00     0.004 C 
BRANCH   8   9
HETATM    9  C9  UNL     1     -34.479  17.283  -0.249  1.00 20.00    -0.004 C 
HETATM   10  C7  UNL     1     -33.228  18.089  -0.561  1.00 20.00     0.005 C 
ENDBRANCH   8   9
ENDBRANCH   7   8
ENDBRANCH   6   7
TORSDOF 3
ENDMDL
MODEL 6
REMARK VINA RESULT:      -4.5     10.948     12.264
REMARK  3 active torsions:
REMARK  status: ('A' for Active; 'I' for Inactive)
REMARK    1  A    between atoms: C6_6  and  C8_8 
REMARK    2  A    between atoms: C8_8  and  C10_10 
REMARK    3  A    between atoms: C9_9  and  C10_10 
ROOT
HETATM    1  C1  UNL     1     -34.831  13.917  -6.014  1.00 20.00     0.000 A 
HETATM    2  C2  UNL     1     -34.767  13.277  -4.776  1.00 20.00     0.001 A 
HETATM    3  C3  UNL     1     -34.537  15.277  -6.112  1.00 20.00     0.001 A 
HETATM    4  C4  UNL     1     -34.408  13.998  -3.637  1.00 20.00     0.007 A 
HETATM    5  C5  UNL     1     -34.179  15.997  -4.972  1.00 20.00     0.007 A 
HETATM    6  C6  UNL     1     -34.114  15.358  -3.735  1.00 20.00    -0.058 A 
ENDROOT
BRANCH   6   7
HETATM    7  C8  UNL     1     -33.726  16.137  -2.504  1.00 20.00     0.038 C 
BRANCH   7   8
HETATM    8  C10 UNL     1     -34.913  16.310  -1.552  1.00 20.00     0.004 C 
BRANCH   8   9
HETATM    9  C9  UNL     1     -34.530  17.154  -0.335  1.00 20.00    -0.004 C 
HETATM   10  C7  UNL     1     -33.331  18.042  -0.628  1.00 20.00     0.005 C 
ENDBRANCH   8   9
ENDBRANCH   7   8
ENDBRANCH   6   7
TORSDOF 3
ENDMDL
MODEL 7
REMARK VINA RESULT:      -4.5     10.989     11.929
REMARK  3 active torsions:
REMARK  status: ('A' for Active; 'I' for Inactive)
REMARK    1  A    between atoms: C6_6  and  C8_8 
REMARK    2  A    between atoms: C8_8  and  C10_10 
REMARK    3  A    between atoms: C9_9  and  C10_10 
ROOT
HETATM    1  C1  UNL     1     -34.089  18.444   1.395  1.00 20.00     0.000 A 
HETATM    2  C2  UNL     1     -33.026  18.795   0.562  1.00 20.00     0.001 A 
HETATM    3  C3  UNL     1     -35.029  17.506   0.969  1.00 20.00     0.001 A 
HETATM    4  C4  UNL     1     -32.905  18.208  -0.698  1.00 20.00     0.007 A 
HETATM    5  C5  UNL     1     -34.908  16.920  -0.292  1.00 20.00     0.007 A 
HETATM    6  C6  UNL     1     -33.846  17.271  -1.125  1.00 20.00    -0.058 A 
ENDROOT
BRANCH   6   7
HETATM    7  C8  UNL     1     -33.716  16.637  -2.487  1.00 20.00     0.038 C 
BRANCH   7   8
HETATM    8  C10 UNL     1     -34.659  15.441  -2.642  1.00 20.00     0.004 C 
BRANCH   8   9
HETATM    9  C9  UNL     1     -34.036  14.354  -3.519  1.00 20.00    -0.004 C 
HETATM   10  C7  UNL     1     -35.102  13.494  -4.180  1.00 20.00     0.005 C 
ENDBRANCH   8   9
ENDBRANCH   7   8
ENDBRANCH   6   7
TORSDOF 3
ENDMDL
MODEL 8
REMARK VINA RESULT:      -4.5     10.982     11.878
REMARK  3 active torsions:
REMARK  status: ('A' for Active; 'I' for Inactive)
REMARK    1  A    between atoms: C6_6  and  C8_8 
REMARK    2  A    between atoms: C8_8  and  C10_10 
REMARK    3  A    between atoms: C9_9  and  C10_10 
ROOT
HETATM    1  C1  UNL     1     -34.097  18.523   1.323  1.00 20.00     0.000 A 
HETATM    2  C2  UNL     1     -35.015  17.540   0.951  1.00 20.00     0.001 A 
HETATM    3  C3  UNL     1     -33.046  18.854   0.468  1.00 20.00     0.001 A 
HETATM    4  C4  UNL     1     -34.881  16.889  -0.274  1.00 20.00     0.007 A 
HETATM    5  C5  UNL     1     -32.912  18.201  -0.758  1.00 20.00     0.007 A 
HETATM    6  C6  UNL     1     -33.830  17.220  -1.129  1.00 20.00    -0.058 A 
ENDROOT
BRANCH   6   7
HETATM    7  C8  UNL     1     -33.683  16.515  -2.454  1.00 20.00     0.038 C 
BRANCH   7   8
HETATM    8  C10 UNL     1     -34.751  15.433  -2.637  1.00 20.00     0.004 C 
BRANCH   8   9
HETATM    9  C9  UNL     1     -34.219  14.262  -3.463  1.00 20.00    -0.004 C 
HETATM   10  C7  UNL     1     -35.326  13.604  -4.273  1.00 20.00     0.005 C 
ENDBRANCH   8   9
ENDBRANCH   7   8
ENDBRANCH   6   7
TORSDOF 3
ENDMDL
MODEL 9
REMARK VINA RESULT:      -4.4      9.862     11.281
REMARK  3 active torsions:
REMARK  status: ('A' for Active; 'I' for Inactive)
REMARK    1  A    between atoms: C6_6  and  C8_8 
REMARK    2  A    between atoms: C8_8  and  C10_10 
REMARK    3  A    between atoms: C9_9  and  C10_10 
ROOT
HETATM    1  C1  UNL     1     -41.077   7.066  -0.839  1.00 20.00     0.000 A 
HETATM    2  C2  UNL     1     -40.649   5.785  -0.491  1.00 20.00     0.001 A 
HETATM    3  C3  UNL     1     -41.980   7.239  -1.888  1.00 20.00     0.001 A 
HETATM    4  C4  UNL     1     -41.124   4.677  -1.193  1.00 20.00     0.007 A 
HETATM    5  C5  UNL     1     -42.454   6.130  -2.590  1.00 20.00     0.007 A 
HETATM    6  C6  UNL     1     -42.026   4.849  -2.242  1.00 20.00    -0.058 A 
ENDROOT
BRANCH   6   7
HETATM    7  C8  UNL     1     -42.540   3.652  -3.002  1.00 20.00     0.038 C 
BRANCH   7   8
HETATM    8  C10 UNL     1     -41.474   2.559  -3.115  1.00 20.00     0.004 C 
BRANCH   8   9
HETATM    9  C9  UNL     1     -41.745   1.639  -4.306  1.00 20.00    -0.004 C 
HETATM   10  C7  UNL     1     -41.812   0.182  -3.880  1.00 20.00     0.005 C 
ENDBRANCH   8   9
ENDBRANCH   7   8
ENDBRANCH   6   7
TORSDOF 3
ENDMDL
