MODEL 1
REMARK VINA RESULT:      -6.0      0.000      0.000
REMARK  5 active torsions:
REMARK  status: ('A' for Active; 'I' for Inactive)
REMARK    1  A    between atoms: C6_6  and  C8_8 
REMARK    2  A    between atoms: C8_8  and  C10_10 
REMARK    3  A    between atoms: C9_9  and  C11_11 
REMARK    4  A    between atoms: C10_10  and  C12_12 
REMARK    5  A    between atoms: C11_11  and  C12_12 
ROOT
HETATM    1  C1  UNL     1     -35.019   4.712   6.633  1.00 20.00     0.000 A 
HETATM    2  C2  UNL     1     -34.373   5.948   6.597  1.00 20.00     0.001 A 
HETATM    3  C3  UNL     1     -35.218   3.994   5.453  1.00 20.00     0.001 A 
HETATM    4  C4  UNL     1     -33.926   6.466   5.382  1.00 20.00     0.007 A 
HETATM    5  C5  UNL     1     -34.770   4.513   4.238  1.00 20.00     0.007 A 
HETATM    6  C6  UNL     1     -34.125   5.750   4.202  1.00 20.00    -0.058 A 
ENDROOT
BRANCH   6   7
HETATM    7  C8  UNL     1     -33.645   6.305   2.897  1.00 20.00     0.038 C 
BRANCH   7   8
HETATM    8  C10 UNL     1     -32.126   6.491   2.885  1.00 20.00     0.005 C 
BRANCH   8   9
HETATM    9  C12 UNL     1     -31.749   7.955   2.649  1.00 20.00     0.000 C 
BRANCH   9  10
HETATM   10  C11 UNL     1     -31.659   8.273   1.156  1.00 20.00    -0.000 C 
BRANCH  10  11
HETATM   11  C9  UNL     1     -32.419   9.554   0.813  1.00 20.00    -0.005 C 
HETATM   12  C7  UNL     1     -32.827  10.311   2.066  1.00 20.00     0.005 C 
ENDBRANCH  10  11
ENDBRANCH   9  10
ENDBRANCH   8   9
ENDBRANCH   7   8
ENDBRANCH   6   7
TORSDOF 5
ENDMDL
MODEL 2
REMARK VINA RESULT:      -4.9     10.859     11.841
REMARK  5 active torsions:
REMARK  status: ('A' for Active; 'I' for Inactive)
REMARK    1  A    between atoms: C6_6  and  C8_8 
REMARK    2  A    between atoms: C8_8  and  C10_10 
REMARK    3  A    between atoms: C9_9  and  C11_11 
REMARK    4  A    between atoms: C10_10  and  C12_12 
REMARK    5  A    between atoms: C11_11  and  C12_12 
ROOT
HETATM    1  C1  UNL     1     -35.138  13.342  -4.405  1.00 20.00     0.000 A 
HETATM    2  C2  UNL     1     -33.778  13.529  -4.159  1.00 20.00     0.001 A 
HETATM    3  C3  UNL     1     -36.070  14.249  -3.899  1.00 20.00     0.001 A 
HETATM    4  C4  UNL     1     -33.350  14.621  -3.405  1.00 20.00     0.007 A 
HETATM    5  C5  UNL     1     -35.641  15.341  -3.145  1.00 20.00     0.007 A 
HETATM    6  C6  UNL     1     -34.280  15.527  -2.898  1.00 20.00    -0.058 A 
ENDROOT
BRANCH   6   7
HETATM    7  C8  UNL     1     -33.821  16.700  -2.088  1.00 20.00     0.038 C 
BRANCH   7   8
HETATM    8  C10 UNL     1     -34.681  16.897  -0.838  1.00 20.00     0.005 C 
BRANCH   8   9
HETATM    9  C12 UNL     1     -33.987  17.810   0.174  1.00 20.00     0.000 C 
BRANCH   9  10
HETATM   10  C11 UNL     1     -33.055  18.804  -0.522  1.00 20.00    -0.000 C 
BRANCH  10  11
HETATM   11  C9  UNL     1     -31.903  19.219   0.392  1.00 20.00    -0.005 C 
HETATM   12  C7  UNL     1     -32.279  19.085   1.859  1.00 20.00     0.005 C 
ENDBRANCH  10  11
ENDBRANCH   9  10
ENDBRANCH   8   9
ENDBRANCH   7   8
ENDBRANCH   6   7
TORSDOF 5
ENDMDL
MODEL 3
REMARK VINA RESULT:      -4.9     10.736     11.916
REMARK  5 active torsions:
REMARK  status: ('A' for Active; 'I' for Inactive)
REMARK    1  A    between atoms: C6_6  and  C8_8 
REMARK    2  A    between atoms: C8_8  and  C10_10 
REMARK    3  A    between atoms: C9_9  and  C11_11 
REMARK    4  A    between atoms: C10_10  and  C12_12 
REMARK    5  A    between atoms: C11_11  and  C12_12 
ROOT
HETATM    1  C1  UNL     1     -33.522  18.854   1.384  1.00 20.00     0.000 A 
HETATM    2  C2  UNL     1     -34.690  18.100   1.502  1.00 20.00     0.001 A 
HETATM    3  C3  UNL     1     -32.741  18.754   0.232  1.00 20.00     0.001 A 
HETATM    4  C4  UNL     1     -35.075  17.245   0.471  1.00 20.00     0.007 A 
HETATM    5  C5  UNL     1     -33.128  17.900  -0.800  1.00 20.00     0.007 A 
HETATM    6  C6  UNL     1     -34.295  17.144  -0.681  1.00 20.00    -0.058 A 
ENDROOT
BRANCH   6   7
HETATM    7  C8  UNL     1     -34.709  16.227  -1.789  1.00 20.00     0.038 C 
BRANCH   7   8
HETATM    8  C10 UNL     1     -33.840  16.417  -3.035  1.00 20.00     0.005 C 
BRANCH   8   9
HETATM    9  C12 UNL     1     -33.303  15.079  -3.545  1.00 20.00     0.000 C 
BRANCH   9  10
HETATM   10  C11 UNL     1     -34.379  13.993  -3.498  1.00 20.00    -0.000 C 
BRANCH  10  11
HETATM   11  C9  UNL     1     -34.536  13.307  -4.855  1.00 20.00    -0.005 C 
HETATM   12  C7  UNL     1     -34.801  14.315  -5.962  1.00 20.00     0.005 C 
ENDBRANCH  10  11
ENDBRANCH   9  10
ENDBRANCH   8   9
ENDBRANCH   7   8
ENDBRANCH   6   7
TORSDOF 5
ENDMDL
MODEL 4
REMARK VINA RESULT:      -4.8     10.688     12.186
REMARK  5 active torsions:
REMARK  status: ('A' for Active; 'I' for Inactive)
REMARK    1  A    between atoms: C6_6  and  C8_8 
REMARK    2  A    between atoms: C8_8  and  C10_10 
REMARK    3  A    between atoms: C9_9  and  C11_11 
REMARK    4  A    between atoms: C10_10  and  C12_12 
REMARK    5  A    between atoms: C11_11  and  C12_12 
ROOT
HETATM    1  C1  UNL     1     -32.308  19.207   2.731  1.00 20.00     0.000 A 
HETATM    2  C2  UNL     1     -33.610  18.728   2.583  1.00 20.00     0.001 A 
HETATM    3  C3  UNL     1     -31.453  19.254   1.630  1.00 20.00     0.001 A 
HETATM    4  C4  UNL     1     -34.056  18.296   1.335  1.00 20.00     0.007 A 
HETATM    5  C5  UNL     1     -31.900  18.823   0.382  1.00 20.00     0.007 A 
HETATM    6  C6  UNL     1     -33.202  18.342   0.234  1.00 20.00    -0.058 A 
ENDROOT
BRANCH   6   7
HETATM    7  C8  UNL     1     -33.680  17.879  -1.107  1.00 20.00     0.038 C 
BRANCH   7   8
HETATM    8  C10 UNL     1     -34.681  16.728  -0.985  1.00 20.00     0.005 C 
BRANCH   8   9
HETATM    9  C12 UNL     1     -34.746  15.911  -2.276  1.00 20.00     0.000 C 
BRANCH   9  10
HETATM   10  C11 UNL     1     -33.434  15.998  -3.056  1.00 20.00    -0.000 C 
BRANCH  10  11
HETATM   11  C9  UNL     1     -33.131  14.688  -3.784  1.00 20.00    -0.005 C 
HETATM   12  C7  UNL     1     -34.300  13.721  -3.698  1.00 20.00     0.005 C 
ENDBRANCH  10  11
ENDBRANCH   9  10
ENDBRANCH   8   9
ENDBRANCH   7   8
ENDBRANCH   6   7
TORSDOF 5
ENDMDL
MODEL 5
REMARK VINA RESULT:      -4.8      0.713      5.600
REMARK  5 active torsions:
REMARK  status: ('A' for Active; 'I' for Inactive)
REMARK    1  A    between atoms: C6_6  and  C8_8 
REMARK    2  A    between atoms: C8_8  and  C10_10 
REMARK    3  A    between atoms: C9_9  and  C11_11 
REMARK    4  A    between atoms: C10_10  and  C12_12 
REMARK    5  A    between atoms: C11_11  and  C12_12 
ROOT
HETATM    1  C1  UNL     1     -32.256   9.914   0.696  1.00 20.00     0.000 A 
HETATM    2  C2  UNL     1     -32.719  10.072   2.002  1.00 20.00     0.001 A 
HETATM    3  C3  UNL     1     -31.796   8.669   0.264  1.00 20.00     0.001 A 
HETATM    4  C4  UNL     1     -32.722   8.986   2.877  1.00 20.00     0.007 A 
HETATM    5  C5  UNL     1     -31.800   7.583   1.139  1.00 20.00     0.007 A 
HETATM    6  C6  UNL     1     -32.262   7.742   2.447  1.00 20.00    -0.058 A 
ENDROOT
BRANCH   6   7
HETATM    7  C8  UNL     1     -32.265   6.575   3.385  1.00 20.00     0.038 C 
BRANCH   7   8
HETATM    8  C10 UNL     1     -33.378   5.580   3.048  1.00 20.00     0.005 C 
BRANCH   8   9
HETATM    9  C12 UNL     1     -34.648   5.878   3.846  1.00 20.00     0.000 C 
BRANCH   9  10
HETATM   10  C11 UNL     1     -35.153   4.631   4.575  1.00 20.00    -0.000 C 
BRANCH  10  11
HETATM   11  C9  UNL     1     -34.834   4.693   6.068  1.00 20.00    -0.005 C 
HETATM   12  C7  UNL     1     -34.320   6.065   6.472  1.00 20.00     0.005 C 
ENDBRANCH  10  11
ENDBRANCH   9  10
ENDBRANCH   8   9
ENDBRANCH   7   8
ENDBRANCH   6   7
TORSDOF 5
ENDMDL
MODEL 6
REMARK VINA RESULT:      -4.8     10.626     12.948
REMARK  5 active torsions:
REMARK  status: ('A' for Active; 'I' for Inactive)
REMARK    1  A    between atoms: C6_6  and  C8_8 
REMARK    2  A    between atoms: C8_8  and  C10_10 
REMARK    3  A    between atoms: C9_9  and  C11_11 
REMARK    4  A    between atoms: C10_10  and  C12_12 
REMARK    5  A    between atoms: C11_11  and  C12_12 
ROOT
HETATM    1  C1  UNL     1     -36.270  16.485  -7.302  1.00 20.00     0.000 A 
HETATM    2  C2  UNL     1     -36.908  16.049  -6.140  1.00 20.00     0.001 A 
HETATM    3  C3  UNL     1     -35.075  15.890  -7.707  1.00 20.00     0.001 A 
HETATM    4  C4  UNL     1     -36.351  15.020  -5.383  1.00 20.00     0.007 A 
HETATM    5  C5  UNL     1     -34.518  14.860  -6.949  1.00 20.00     0.007 A 
HETATM    6  C6  UNL     1     -35.156  14.425  -5.786  1.00 20.00    -0.058 A 
ENDROOT
BRANCH   6   7
HETATM    7  C8  UNL     1     -34.556  13.319  -4.974  1.00 20.00     0.038 C 
BRANCH   7   8
HETATM    8  C10 UNL     1     -34.206  13.782  -3.558  1.00 20.00     0.005 C 
BRANCH   8   9
HETATM    9  C12 UNL     1     -33.097  14.836  -3.579  1.00 20.00     0.000 C 
BRANCH   9  10
HETATM   10  C11 UNL     1     -33.581  16.164  -2.993  1.00 20.00    -0.000 C 
BRANCH  10  11
HETATM   11  C9  UNL     1     -34.775  15.958  -2.061  1.00 20.00    -0.005 C 
HETATM   12  C7  UNL     1     -34.588  16.698  -0.746  1.00 20.00     0.005 C 
ENDBRANCH  10  11
ENDBRANCH   9  10
ENDBRANCH   8   9
ENDBRANCH   7   8
ENDBRANCH   6   7
TORSDOF 5
ENDMDL
MODEL 7
REMARK VINA RESULT:      -4.7     10.819     12.305
REMARK  5 active torsions:
REMARK  status: ('A' for Active; 'I' for Inactive)
REMARK    1  A    between atoms: C6_6  and  C8_8 
REMARK    2  A    between atoms: C8_8  and  C10_10 
REMARK    3  A    between atoms: C9_9  and  C11_11 
REMARK    4  A    between atoms: C10_10  and  C12_12 
REMARK    5  A    between atoms: C11_11  and  C12_12 
ROOT
HETATM    1  C1  UNL     1     -34.956  13.305  -4.539  1.00 20.00     0.000 A 
HETATM    2  C2  UNL     1     -33.712  13.645  -4.007  1.00 20.00     0.001 A 
HETATM    3  C3  UNL     1     -36.091  14.032  -4.178  1.00 20.00     0.001 A 
HETATM    4  C4  UNL     1     -33.603  14.710  -3.113  1.00 20.00     0.007 A 
HETATM    5  C5  UNL     1     -35.982  15.097  -3.284  1.00 20.00     0.007 A 
HETATM    6  C6  UNL     1     -34.737  15.436  -2.751  1.00 20.00    -0.058 A 
ENDROOT
BRANCH   6   7
HETATM    7  C8  UNL     1     -34.622  16.579  -1.792  1.00 20.00     0.038 C 
BRANCH   7   8
HETATM    8  C10 UNL     1     -33.703  17.679  -2.330  1.00 20.00     0.005 C 
BRANCH   8   9
HETATM    9  C12 UNL     1     -34.346  18.409  -3.510  1.00 20.00     0.000 C 
BRANCH   9  10
HETATM   10  C11 UNL     1     -33.645  18.064  -4.825  1.00 20.00    -0.000 C 
BRANCH  10  11
HETATM   11  C9  UNL     1     -34.641  17.571  -5.874  1.00 20.00    -0.005 C 
HETATM   12  C7  UNL     1     -34.147  16.309  -6.563  1.00 20.00     0.005 C 
ENDBRANCH  10  11
ENDBRANCH   9  10
ENDBRANCH   8   9
ENDBRANCH   7   8
ENDBRANCH   6   7
TORSDOF 5
ENDMDL
MODEL 8
REMARK VINA RESULT:      -4.7     10.762     12.733
REMARK  5 active torsions:
REMARK  status: ('A' for Active; 'I' for Inactive)
REMARK    1  A    between atoms: C6_6  and  C8_8 
REMARK    2  A    between atoms: C8_8  and  C10_10 
REMARK    3  A    between atoms: C9_9  and  C11_11 
REMARK    4  A    between atoms: C10_10  and  C12_12 
REMARK    5  A    between atoms: C11_11  and  C12_12 
ROOT
HETATM    1  C1  UNL     1     -34.486  13.207  -4.763  1.00 20.00     0.000 A 
HETATM    2  C2  UNL     1     -35.058  14.047  -5.718  1.00 20.00     0.001 A 
HETATM    3  C3  UNL     1     -33.558  13.714  -3.853  1.00 20.00     0.001 A 
HETATM    4  C4  UNL     1     -34.701  15.394  -5.765  1.00 20.00     0.007 A 
HETATM    5  C5  UNL     1     -33.202  15.062  -3.900  1.00 20.00     0.007 A 
HETATM    6  C6  UNL     1     -33.773  15.902  -4.857  1.00 20.00    -0.058 A 
ENDROOT
BRANCH   6   7
HETATM    7  C8  UNL     1     -33.389  17.348  -4.906  1.00 20.00     0.038 C 
BRANCH   7   8
HETATM    8  C10 UNL     1     -34.570  18.259  -4.560  1.00 20.00     0.005 C 
BRANCH   8   9
HETATM    9  C12 UNL     1     -34.933  18.158  -3.078  1.00 20.00     0.000 C 
BRANCH   9  10
HETATM   10  C11 UNL     1     -33.754  18.556  -2.188  1.00 20.00    -0.000 C 
BRANCH  10  11
HETATM   11  C9  UNL     1     -33.558  17.560  -1.046  1.00 20.00    -0.005 C 
HETATM   12  C7  UNL     1     -34.719  16.583  -0.954  1.00 20.00     0.005 C 
ENDBRANCH  10  11
ENDBRANCH   9  10
ENDBRANCH   8   9
ENDBRANCH   7   8
ENDBRANCH   6   7
TORSDOF 5
ENDMDL
MODEL 9
REMARK VINA RESULT:      -4.7     10.590     12.579
REMARK  5 active torsions:
REMARK  status: ('A' for Active; 'I' for Inactive)
REMARK    1  A    between atoms: C6_6  and  C8_8 
REMARK    2  A    between atoms: C8_8  and  C10_10 
REMARK    3  A    between atoms: C9_9  and  C11_11 
REMARK    4  A    between atoms: C10_10  and  C12_12 
REMARK    5  A    between atoms: C11_11  and  C12_12 
ROOT
HETATM    1  C1  UNL     1     -37.254  15.729  -6.717  1.00 20.00     0.000 A 
HETATM    2  C2  UNL     1     -36.133  15.286  -7.419  1.00 20.00     0.001 A 
HETATM    3  C3  UNL     1     -37.421  15.380  -5.377  1.00 20.00     0.001 A 
HETATM    4  C4  UNL     1     -35.180  14.492  -6.782  1.00 20.00     0.007 A 
HETATM    5  C5  UNL     1     -36.467  14.586  -4.739  1.00 20.00     0.007 A 
HETATM    6  C6  UNL     1     -35.347  14.141  -5.442  1.00 20.00    -0.058 A 
ENDROOT
BRANCH   6   7
HETATM    7  C8  UNL     1     -34.324  13.289  -4.757  1.00 20.00     0.038 C 
BRANCH   7   8
HETATM    8  C10 UNL     1     -33.888  13.893  -3.420  1.00 20.00     0.005 C 
BRANCH   8   9
HETATM    9  C12 UNL     1     -33.004  15.124  -3.631  1.00 20.00     0.000 C 
BRANCH   9  10
HETATM   10  C11 UNL     1     -33.623  16.369  -2.991  1.00 20.00    -0.000 C 
BRANCH  10  11
HETATM   11  C9  UNL     1     -34.689  15.994  -1.963  1.00 20.00    -0.005 C 
HETATM   12  C7  UNL     1     -34.564  16.830  -0.700  1.00 20.00     0.005 C 
ENDBRANCH  10  11
ENDBRANCH   9  10
ENDBRANCH   8   9
ENDBRANCH   7   8
ENDBRANCH   6   7
TORSDOF 5
ENDMDL
