MODEL 1
REMARK VINA RESULT:      -5.3      0.000      0.000
REMARK  1 active torsions:
REMARK  status: ('A' for Active; 'I' for Inactive)
REMARK    1  A    between atoms: C6_6  and  N8_8 
ROOT
HETATM    1  C1  UNL     1     -35.141   4.745   6.063  1.00 20.00     0.000 A 
HETATM    2  C2  UNL     1     -35.282   4.418   4.715  1.00 20.00     0.002 A 
HETATM    3  C3  UNL     1     -34.330   5.816   6.439  1.00 20.00     0.002 A 
HETATM    4  C4  UNL     1     -34.612   5.162   3.743  1.00 20.00     0.029 A 
HETATM    5  C5  UNL     1     -33.660   6.559   5.468  1.00 20.00     0.029 A 
HETATM    6  C6  UNL     1     -33.801   6.232   4.119  1.00 20.00     0.027 A 
ENDROOT
BRANCH   6   7
HETATM    7  N8  UNL     1     -33.124   6.984   3.137  1.00 20.00    -0.394 N 
HETATM    8  C7  UNL     1     -31.753   7.369   3.263  1.00 20.00     0.146 C 
HETATM    9  H17 UNL     1     -33.649   7.249   2.326  1.00 20.00     0.159 HD
ENDBRANCH   6   7
TORSDOF 1
ENDMDL
MODEL 2
REMARK VINA RESULT:      -5.3      0.018      1.708
REMARK  1 active torsions:
REMARK  status: ('A' for Active; 'I' for Inactive)
REMARK    1  A    between atoms: C6_6  and  N8_8 
ROOT
HETATM    1  C1  UNL     1     -35.136   4.731   6.056  1.00 20.00     0.000 A 
HETATM    2  C2  UNL     1     -34.332   5.805   6.435  1.00 20.00     0.002 A 
HETATM    3  C3  UNL     1     -35.268   4.401   4.707  1.00 20.00     0.002 A 
HETATM    4  C4  UNL     1     -33.658   6.549   5.466  1.00 20.00     0.029 A 
HETATM    5  C5  UNL     1     -34.595   5.145   3.739  1.00 20.00     0.029 A 
HETATM    6  C6  UNL     1     -33.790   6.219   4.118  1.00 20.00     0.027 A 
ENDROOT
BRANCH   6   7
HETATM    7  N8  UNL     1     -33.110   6.970   3.137  1.00 20.00    -0.394 N 
HETATM    8  C7  UNL     1     -31.742   7.365   3.273  1.00 20.00     0.146 C 
HETATM    9  H17 UNL     1     -33.630   7.227   2.320  1.00 20.00     0.159 HD
ENDBRANCH   6   7
TORSDOF 1
ENDMDL
MODEL 3
REMARK VINA RESULT:      -3.9      9.258     10.365
REMARK  1 active torsions:
REMARK  status: ('A' for Active; 'I' for Inactive)
REMARK    1  A    between atoms: C6_6  and  N8_8 
ROOT
HETATM    1  C1  UNL     1     -41.495   7.253  -1.099  1.00 20.00     0.000 A 
HETATM    2  C2  UNL     1     -42.232   6.813  -2.198  1.00 20.00     0.002 A 
HETATM    3  C3  UNL     1     -40.749   6.342  -0.352  1.00 20.00     0.002 A 
HETATM    4  C4  UNL     1     -42.223   5.463  -2.551  1.00 20.00     0.029 A 
HETATM    5  C5  UNL     1     -40.740   4.992  -0.704  1.00 20.00     0.029 A 
HETATM    6  C6  UNL     1     -41.477   4.553  -1.803  1.00 20.00     0.027 A 
ENDROOT
BRANCH   6   7
HETATM    7  N8  UNL     1     -41.466   3.188  -2.159  1.00 20.00    -0.394 N 
HETATM    8  C7  UNL     1     -42.275   2.654  -3.210  1.00 20.00     0.146 C 
HETATM    9  H17 UNL     1     -40.858   2.587  -1.637  1.00 20.00     0.159 HD
ENDBRANCH   6   7
TORSDOF 1
ENDMDL
MODEL 4
REMARK VINA RESULT:      -3.9      9.274     10.480
REMARK  1 active torsions:
REMARK  status: ('A' for Active; 'I' for Inactive)
REMARK    1  A    between atoms: C6_6  and  N8_8 
ROOT
HETATM    1  C1  UNL     1     -41.446   7.244  -1.055  1.00 20.00     0.000 A 
HETATM    2  C2  UNL     1     -40.727   6.294  -0.331  1.00 20.00     0.002 A 
HETATM    3  C3  UNL     1     -42.194   6.854  -2.166  1.00 20.00     0.002 A 
HETATM    4  C4  UNL     1     -40.756   4.954  -0.717  1.00 20.00     0.029 A 
HETATM    5  C5  UNL     1     -42.223   5.514  -2.551  1.00 20.00     0.029 A 
HETATM    6  C6  UNL     1     -41.504   4.564  -1.827  1.00 20.00     0.027 A 
ENDROOT
BRANCH   6   7
HETATM    7  N8  UNL     1     -41.534   3.209  -2.217  1.00 20.00    -0.394 N 
HETATM    8  C7  UNL     1     -42.564   2.662  -3.045  1.00 20.00     0.146 C 
HETATM    9  H17 UNL     1     -40.791   2.624  -1.886  1.00 20.00     0.159 HD
ENDBRANCH   6   7
TORSDOF 1
ENDMDL
MODEL 5
REMARK VINA RESULT:      -3.9      9.430     10.436
REMARK  1 active torsions:
REMARK  status: ('A' for Active; 'I' for Inactive)
REMARK    1  A    between atoms: C6_6  and  N8_8 
ROOT
HETATM    1  C1  UNL     1     -41.026   4.650  -0.748  1.00 20.00     0.000 A 
HETATM    2  C2  UNL     1     -40.652   5.915  -0.299  1.00 20.00     0.002 A 
HETATM    3  C3  UNL     1     -41.799   4.521  -1.902  1.00 20.00     0.002 A 
HETATM    4  C4  UNL     1     -41.049   7.052  -1.004  1.00 20.00     0.029 A 
HETATM    5  C5  UNL     1     -42.196   5.657  -2.606  1.00 20.00     0.029 A 
HETATM    6  C6  UNL     1     -41.822   6.923  -2.157  1.00 20.00     0.027 A 
ENDROOT
BRANCH   6   7
HETATM    7  N8  UNL     1     -42.224   8.071  -2.870  1.00 20.00    -0.394 N 
HETATM    8  C7  UNL     1     -42.705   8.021  -4.215  1.00 20.00     0.146 C 
HETATM    9  H17 UNL     1     -42.159   8.949  -2.391  1.00 20.00     0.159 HD
ENDBRANCH   6   7
TORSDOF 1
ENDMDL
MODEL 6
REMARK VINA RESULT:      -3.8     12.078     12.269
REMARK  1 active torsions:
REMARK  status: ('A' for Active; 'I' for Inactive)
REMARK    1  A    between atoms: C6_6  and  N8_8 
ROOT
HETATM    1  C1  UNL     1     -34.236  13.556  -4.565  1.00 20.00     0.000 A 
HETATM    2  C2  UNL     1     -35.593  13.812  -4.371  1.00 20.00     0.002 A 
HETATM    3  C3  UNL     1     -33.281  14.285  -3.856  1.00 20.00     0.002 A 
HETATM    4  C4  UNL     1     -35.995  14.796  -3.468  1.00 20.00     0.029 A 
HETATM    5  C5  UNL     1     -33.683  15.269  -2.953  1.00 20.00     0.029 A 
HETATM    6  C6  UNL     1     -35.040  15.525  -2.759  1.00 20.00     0.027 A 
ENDROOT
BRANCH   6   7
HETATM    7  N8  UNL     1     -35.446  16.519  -1.846  1.00 20.00    -0.394 N 
HETATM    8  C7  UNL     1     -34.723  16.816  -0.649  1.00 20.00     0.146 C 
HETATM    9  H17 UNL     1     -36.283  17.025  -2.067  1.00 20.00     0.159 HD
ENDBRANCH   6   7
TORSDOF 1
ENDMDL
MODEL 7
REMARK VINA RESULT:      -3.8     12.084     12.353
REMARK  1 active torsions:
REMARK  status: ('A' for Active; 'I' for Inactive)
REMARK    1  A    between atoms: C6_6  and  N8_8 
ROOT
HETATM    1  C1  UNL     1     -34.234  13.557  -4.570  1.00 20.00     0.000 A 
HETATM    2  C2  UNL     1     -33.281  14.291  -3.864  1.00 20.00     0.002 A 
HETATM    3  C3  UNL     1     -35.592  13.809  -4.375  1.00 20.00     0.002 A 
HETATM    4  C4  UNL     1     -33.685  15.277  -2.964  1.00 20.00     0.029 A 
HETATM    5  C5  UNL     1     -35.996  14.795  -3.475  1.00 20.00     0.029 A 
HETATM    6  C6  UNL     1     -35.043  15.528  -2.769  1.00 20.00     0.027 A 
ENDROOT
BRANCH   6   7
HETATM    7  N8  UNL     1     -35.452  16.525  -1.859  1.00 20.00    -0.394 N 
HETATM    8  C7  UNL     1     -34.741  16.816  -0.654  1.00 20.00     0.146 C 
HETATM    9  H17 UNL     1     -36.282  17.038  -2.090  1.00 20.00     0.159 HD
ENDBRANCH   6   7
TORSDOF 1
ENDMDL
MODEL 8
REMARK VINA RESULT:      -3.8     12.056     12.539
REMARK  1 active torsions:
REMARK  status: ('A' for Active; 'I' for Inactive)
REMARK    1  A    between atoms: C6_6  and  N8_8 
ROOT
HETATM    1  C1  UNL     1     -33.220  14.482  -3.749  1.00 20.00     0.000 A 
HETATM    2  C2  UNL     1     -34.181  13.618  -4.274  1.00 20.00     0.002 A 
HETATM    3  C3  UNL     1     -33.616  15.610  -3.030  1.00 20.00     0.002 A 
HETATM    4  C4  UNL     1     -35.537  13.882  -4.081  1.00 20.00     0.029 A 
HETATM    5  C5  UNL     1     -34.972  15.874  -2.838  1.00 20.00     0.029 A 
HETATM    6  C6  UNL     1     -35.933  15.010  -3.363  1.00 20.00     0.027 A 
ENDROOT
BRANCH   6   7
HETATM    7  N8  UNL     1     -37.303  15.277  -3.167  1.00 20.00    -0.394 N 
HETATM    8  C7  UNL     1     -38.325  14.767  -4.028  1.00 20.00     0.146 C 
HETATM    9  H17 UNL     1     -37.546  15.854  -2.384  1.00 20.00     0.159 HD
ENDBRANCH   6   7
TORSDOF 1
ENDMDL
MODEL 9
REMARK VINA RESULT:      -3.7     12.059     13.597
REMARK  1 active torsions:
REMARK  status: ('A' for Active; 'I' for Inactive)
REMARK    1  A    between atoms: C6_6  and  N8_8 
ROOT
HETATM    1  C1  UNL     1     -33.042  15.094  -3.646  1.00 20.00     0.000 A 
HETATM    2  C2  UNL     1     -33.629  13.837  -3.789  1.00 20.00     0.002 A 
HETATM    3  C3  UNL     1     -33.233  16.068  -4.626  1.00 20.00     0.002 A 
HETATM    4  C4  UNL     1     -34.409  13.555  -4.911  1.00 20.00     0.029 A 
HETATM    5  C5  UNL     1     -34.012  15.785  -5.748  1.00 20.00     0.029 A 
HETATM    6  C6  UNL     1     -34.599  14.528  -5.891  1.00 20.00     0.027 A 
ENDROOT
BRANCH   6   7
HETATM    7  N8  UNL     1     -35.387  14.243  -7.025  1.00 20.00    -0.394 N 
HETATM    8  C7  UNL     1     -36.574  14.971  -7.348  1.00 20.00     0.146 C 
HETATM    9  H17 UNL     1     -35.080  13.492  -7.614  1.00 20.00     0.159 HD
ENDBRANCH   6   7
TORSDOF 1
ENDMDL
