MODEL 1
REMARK VINA RESULT:      -6.1      0.000      0.000
REMARK  2 active torsions:
REMARK  status: ('A' for Active; 'I' for Inactive)
REMARK    1  A    between atoms: C6_6  and  C8_8 
REMARK    2  A    between atoms: C8_8  and  C9_9 
ROOT
HETATM    1  C1  UNL     1     -35.061   5.059   6.378  1.00 20.00     0.000 A 
HETATM    2  C2  UNL     1     -35.292   4.366   5.191  1.00 20.00     0.001 A 
HETATM    3  C3  UNL     1     -34.183   6.142   6.393  1.00 20.00     0.001 A 
HETATM    4  C4  UNL     1     -34.646   4.756   4.018  1.00 20.00     0.007 A 
HETATM    5  C5  UNL     1     -33.536   6.532   5.221  1.00 20.00     0.007 A 
HETATM    6  C6  UNL     1     -33.767   5.838   4.033  1.00 20.00    -0.058 A 
ENDROOT
BRANCH   6   7
HETATM    7  C8  UNL     1     -33.075   6.256   2.779  1.00 20.00     0.038 C 
BRANCH   7   8
HETATM    8  C9  UNL     1     -32.036   7.358   3.033  1.00 20.00     0.000 C 
HETATM    9  C7  UNL     1     -32.040   8.409   1.935  1.00 20.00     0.005 C 
ENDBRANCH   7   8
ENDBRANCH   6   7
TORSDOF 2
ENDMDL
MODEL 2
REMARK VINA RESULT:      -6.1      0.008      1.610
REMARK  2 active torsions:
REMARK  status: ('A' for Active; 'I' for Inactive)
REMARK    1  A    between atoms: C6_6  and  C8_8 
REMARK    2  A    between atoms: C8_8  and  C9_9 
ROOT
HETATM    1  C1  UNL     1     -35.065   5.065   6.383  1.00 20.00     0.000 A 
HETATM    2  C2  UNL     1     -34.187   6.148   6.398  1.00 20.00     0.001 A 
HETATM    3  C3  UNL     1     -35.297   4.371   5.196  1.00 20.00     0.001 A 
HETATM    4  C4  UNL     1     -33.540   6.538   5.225  1.00 20.00     0.007 A 
HETATM    5  C5  UNL     1     -34.651   4.761   4.023  1.00 20.00     0.007 A 
HETATM    6  C6  UNL     1     -33.773   5.844   4.037  1.00 20.00    -0.058 A 
ENDROOT
BRANCH   6   7
HETATM    7  C8  UNL     1     -33.082   6.260   2.783  1.00 20.00     0.038 C 
BRANCH   7   8
HETATM    8  C9  UNL     1     -32.037   7.358   3.036  1.00 20.00     0.000 C 
HETATM    9  C7  UNL     1     -32.037   8.409   1.937  1.00 20.00     0.005 C 
ENDBRANCH   7   8
ENDBRANCH   6   7
TORSDOF 2
ENDMDL
MODEL 3
REMARK VINA RESULT:      -4.5     11.533     12.134
REMARK  2 active torsions:
REMARK  status: ('A' for Active; 'I' for Inactive)
REMARK    1  A    between atoms: C6_6  and  C8_8 
REMARK    2  A    between atoms: C8_8  and  C9_9 
ROOT
HETATM    1  C1  UNL     1     -35.106  13.332  -4.501  1.00 20.00     0.000 A 
HETATM    2  C2  UNL     1     -33.758  13.554  -4.220  1.00 20.00     0.001 A 
HETATM    3  C3  UNL     1     -36.075  14.197  -3.995  1.00 20.00     0.001 A 
HETATM    4  C4  UNL     1     -33.379  14.642  -3.434  1.00 20.00     0.007 A 
HETATM    5  C5  UNL     1     -35.696  15.285  -3.208  1.00 20.00     0.007 A 
HETATM    6  C6  UNL     1     -34.348  15.507  -2.927  1.00 20.00    -0.058 A 
ENDROOT
BRANCH   6   7
HETATM    7  C8  UNL     1     -33.944  16.670  -2.086  1.00 20.00     0.038 C 
BRANCH   7   8
HETATM    8  C9  UNL     1     -34.638  16.661  -0.716  1.00 20.00     0.000 C 
HETATM    9  C7  UNL     1     -34.212  17.839   0.146  1.00 20.00     0.005 C 
ENDBRANCH   7   8
ENDBRANCH   6   7
TORSDOF 2
ENDMDL
MODEL 4
REMARK VINA RESULT:      -4.5     11.511     12.108
REMARK  2 active torsions:
REMARK  status: ('A' for Active; 'I' for Inactive)
REMARK    1  A    between atoms: C6_6  and  C8_8 
REMARK    2  A    between atoms: C8_8  and  C9_9 
ROOT
HETATM    1  C1  UNL     1     -35.046  13.342  -4.427  1.00 20.00     0.000 A 
HETATM    2  C2  UNL     1     -36.024  14.203  -3.932  1.00 20.00     0.001 A 
HETATM    3  C3  UNL     1     -33.700  13.585  -4.151  1.00 20.00     0.001 A 
HETATM    4  C4  UNL     1     -35.659  15.306  -3.160  1.00 20.00     0.007 A 
HETATM    5  C5  UNL     1     -33.334  14.688  -3.381  1.00 20.00     0.007 A 
HETATM    6  C6  UNL     1     -34.313  15.549  -2.885  1.00 20.00    -0.058 A 
ENDROOT
BRANCH   6   7
HETATM    7  C8  UNL     1     -33.922  16.728  -2.061  1.00 20.00     0.038 C 
BRANCH   7   8
HETATM    8  C9  UNL     1     -34.607  16.725  -0.686  1.00 20.00     0.000 C 
HETATM    9  C7  UNL     1     -34.172  17.903   0.170  1.00 20.00     0.005 C 
ENDBRANCH   7   8
ENDBRANCH   6   7
TORSDOF 2
ENDMDL
MODEL 5
REMARK VINA RESULT:      -4.3     11.437     12.704
REMARK  2 active torsions:
REMARK  status: ('A' for Active; 'I' for Inactive)
REMARK    1  A    between atoms: C6_6  and  C8_8 
REMARK    2  A    between atoms: C8_8  and  C9_9 
ROOT
HETATM    1  C1  UNL     1     -34.842  13.855  -5.822  1.00 20.00     0.000 A 
HETATM    2  C2  UNL     1     -34.839  13.329  -4.531  1.00 20.00     0.001 A 
HETATM    3  C3  UNL     1     -34.463  15.180  -6.035  1.00 20.00     0.001 A 
HETATM    4  C4  UNL     1     -34.457  14.126  -3.453  1.00 20.00     0.007 A 
HETATM    5  C5  UNL     1     -34.081  15.979  -4.957  1.00 20.00     0.007 A 
HETATM    6  C6  UNL     1     -34.079  15.452  -3.666  1.00 20.00    -0.058 A 
ENDROOT
BRANCH   6   7
HETATM    7  C8  UNL     1     -33.670  16.306  -2.513  1.00 20.00     0.038 C 
BRANCH   7   8
HETATM    8  C9  UNL     1     -34.730  16.319  -1.400  1.00 20.00     0.000 C 
HETATM    9  C7  UNL     1     -34.390  17.313  -0.302  1.00 20.00     0.005 C 
ENDBRANCH   7   8
ENDBRANCH   6   7
TORSDOF 2
ENDMDL
MODEL 6
REMARK VINA RESULT:      -4.3     11.459     12.748
REMARK  2 active torsions:
REMARK  status: ('A' for Active; 'I' for Inactive)
REMARK    1  A    between atoms: C6_6  and  C8_8 
REMARK    2  A    between atoms: C8_8  and  C9_9 
ROOT
HETATM    1  C1  UNL     1     -34.826  13.879  -5.841  1.00 20.00     0.000 A 
HETATM    2  C2  UNL     1     -34.399  15.191  -6.045  1.00 20.00     0.001 A 
HETATM    3  C3  UNL     1     -34.879  13.356  -4.549  1.00 20.00     0.001 A 
HETATM    4  C4  UNL     1     -34.026  15.980  -4.957  1.00 20.00     0.007 A 
HETATM    5  C5  UNL     1     -34.505  14.144  -3.462  1.00 20.00     0.007 A 
HETATM    6  C6  UNL     1     -34.078  15.457  -3.665  1.00 20.00    -0.058 A 
ENDROOT
BRANCH   6   7
HETATM    7  C8  UNL     1     -33.679  16.300  -2.502  1.00 20.00     0.038 C 
BRANCH   7   8
HETATM    8  C9  UNL     1     -34.752  16.312  -1.402  1.00 20.00     0.000 C 
HETATM    9  C7  UNL     1     -34.420  17.297  -0.293  1.00 20.00     0.005 C 
ENDBRANCH   7   8
ENDBRANCH   6   7
TORSDOF 2
ENDMDL
MODEL 7
REMARK VINA RESULT:      -4.3      9.682     10.915
REMARK  2 active torsions:
REMARK  status: ('A' for Active; 'I' for Inactive)
REMARK    1  A    between atoms: C6_6  and  C8_8 
REMARK    2  A    between atoms: C8_8  and  C9_9 
ROOT
HETATM    1  C1  UNL     1     -41.059   7.028  -0.895  1.00 20.00     0.000 A 
HETATM    2  C2  UNL     1     -40.661   5.737  -0.549  1.00 20.00     0.001 A 
HETATM    3  C3  UNL     1     -41.948   7.223  -1.951  1.00 20.00     0.001 A 
HETATM    4  C4  UNL     1     -41.153   4.641  -1.258  1.00 20.00     0.007 A 
HETATM    5  C5  UNL     1     -42.440   6.128  -2.661  1.00 20.00     0.007 A 
HETATM    6  C6  UNL     1     -42.042   4.837  -2.315  1.00 20.00    -0.058 A 
ENDROOT
BRANCH   6   7
HETATM    7  C8  UNL     1     -42.568   3.666  -3.074  1.00 20.00     0.038 C 
BRANCH   7   8
HETATM    8  C9  UNL     1     -41.570   2.497  -3.097  1.00 20.00     0.000 C 
HETATM    9  C7  UNL     1     -41.771   1.600  -4.308  1.00 20.00     0.005 C 
ENDBRANCH   7   8
ENDBRANCH   6   7
TORSDOF 2
ENDMDL
MODEL 8
REMARK VINA RESULT:      -4.2     11.582     12.464
REMARK  2 active torsions:
REMARK  status: ('A' for Active; 'I' for Inactive)
REMARK    1  A    between atoms: C6_6  and  C8_8 
REMARK    2  A    between atoms: C8_8  and  C9_9 
ROOT
HETATM    1  C1  UNL     1     -34.071  18.482   1.511  1.00 20.00     0.000 A 
HETATM    2  C2  UNL     1     -35.033  17.568   1.085  1.00 20.00     0.001 A 
HETATM    3  C3  UNL     1     -33.004  18.813   0.676  1.00 20.00     0.001 A 
HETATM    4  C4  UNL     1     -34.930  16.984  -0.177  1.00 20.00     0.007 A 
HETATM    5  C5  UNL     1     -32.900  18.229  -0.586  1.00 20.00     0.007 A 
HETATM    6  C6  UNL     1     -33.862  17.314  -1.013  1.00 20.00    -0.058 A 
ENDROOT
BRANCH   6   7
HETATM    7  C8  UNL     1     -33.751  16.689  -2.362  1.00 20.00     0.038 C 
BRANCH   7   8
HETATM    8  C9  UNL     1     -34.799  15.586  -2.577  1.00 20.00     0.000 C 
HETATM    9  C7  UNL     1     -34.250  14.431  -3.399  1.00 20.00     0.005 C 
ENDBRANCH   7   8
ENDBRANCH   6   7
TORSDOF 2
ENDMDL
MODEL 9
REMARK VINA RESULT:      -4.2     11.756     12.579
REMARK  2 active torsions:
REMARK  status: ('A' for Active; 'I' for Inactive)
REMARK    1  A    between atoms: C6_6  and  C8_8 
REMARK    2  A    between atoms: C8_8  and  C9_9 
ROOT
HETATM    1  C1  UNL     1     -33.485  18.960   1.427  1.00 20.00     0.000 A 
HETATM    2  C2  UNL     1     -32.764  18.825   0.241  1.00 20.00     0.001 A 
HETATM    3  C3  UNL     1     -34.645  18.213   1.626  1.00 20.00     0.001 A 
HETATM    4  C4  UNL     1     -33.203  17.943  -0.746  1.00 20.00     0.007 A 
HETATM    5  C5  UNL     1     -35.085  17.331   0.640  1.00 20.00     0.007 A 
HETATM    6  C6  UNL     1     -34.364  17.196  -0.547  1.00 20.00    -0.058 A 
ENDROOT
BRANCH   6   7
HETATM    7  C8  UNL     1     -34.834  16.252  -1.601  1.00 20.00     0.038 C 
BRANCH   7   8
HETATM    8  C9  UNL     1     -33.775  16.031  -2.692  1.00 20.00     0.000 C 
HETATM    9  C7  UNL     1     -34.011  14.742  -3.462  1.00 20.00     0.005 C 
ENDBRANCH   7   8
ENDBRANCH   6   7
TORSDOF 2
ENDMDL
