MODEL 1
REMARK VINA RESULT:      -5.5      0.000      0.000
REMARK  0 active torsions:
REMARK  status: ('A' for Active; 'I' for Inactive)
ROOT
HETATM    1  C1  UNL     1     -32.731   6.323   2.195  1.00 20.00     0.001 A 
HETATM    2  C2  UNL     1     -32.170   7.266   3.050  1.00 20.00     0.001 A 
HETATM    3  C3  UNL     1     -35.337   4.526   5.890  1.00 20.00     0.001 A 
HETATM    4  C4  UNL     1     -34.774   5.470   6.746  1.00 20.00     0.001 A 
HETATM    5  C5  UNL     1     -33.660   5.404   2.683  1.00 20.00     0.012 A 
HETATM    6  C6  UNL     1     -32.534   7.294   4.396  1.00 20.00     0.012 A 
HETATM    7  C7  UNL     1     -34.972   4.499   4.544  1.00 20.00     0.012 A 
HETATM    8  C8  UNL     1     -33.846   6.390   6.257  1.00 20.00     0.012 A 
HETATM    9  C9  UNL     1     -34.039   5.417   4.036  1.00 20.00    -0.026 A 
HETATM   10  C10 UNL     1     -33.467   6.377   4.905  1.00 20.00    -0.026 A 
ENDROOT
TORSDOF 0
ENDMDL
MODEL 2
REMARK VINA RESULT:      -5.5      0.007      2.070
REMARK  0 active torsions:
REMARK  status: ('A' for Active; 'I' for Inactive)
ROOT
HETATM    1  C1  UNL     1     -32.171   7.272   3.045  1.00 20.00     0.001 A 
HETATM    2  C2  UNL     1     -32.728   6.324   2.192  1.00 20.00     0.001 A 
HETATM    3  C3  UNL     1     -34.775   5.475   6.742  1.00 20.00     0.001 A 
HETATM    4  C4  UNL     1     -35.333   4.527   5.888  1.00 20.00     0.001 A 
HETATM    5  C5  UNL     1     -32.537   7.301   4.391  1.00 20.00     0.012 A 
HETATM    6  C6  UNL     1     -33.654   5.402   2.681  1.00 20.00     0.012 A 
HETATM    7  C7  UNL     1     -33.849   6.396   6.252  1.00 20.00     0.012 A 
HETATM    8  C8  UNL     1     -34.966   4.498   4.542  1.00 20.00     0.012 A 
HETATM    9  C9  UNL     1     -33.468   6.381   4.901  1.00 20.00    -0.026 A 
HETATM   10  C10 UNL     1     -34.035   5.417   4.032  1.00 20.00    -0.026 A 
ENDROOT
TORSDOF 0
ENDMDL
MODEL 3
REMARK VINA RESULT:      -5.5      0.041      3.445
REMARK  0 active torsions:
REMARK  status: ('A' for Active; 'I' for Inactive)
ROOT
HETATM    1  C1  UNL     1     -35.344   4.476   5.855  1.00 20.00     0.001 A 
HETATM    2  C2  UNL     1     -34.804   5.422   6.722  1.00 20.00     0.001 A 
HETATM    3  C3  UNL     1     -32.716   6.325   2.201  1.00 20.00     0.001 A 
HETATM    4  C4  UNL     1     -32.177   7.272   3.069  1.00 20.00     0.001 A 
HETATM    5  C5  UNL     1     -34.962   4.460   4.514  1.00 20.00     0.012 A 
HETATM    6  C6  UNL     1     -33.882   6.356   6.250  1.00 20.00     0.012 A 
HETATM    7  C7  UNL     1     -33.638   5.392   2.674  1.00 20.00     0.012 A 
HETATM    8  C8  UNL     1     -32.559   7.288   4.411  1.00 20.00     0.012 A 
HETATM    9  C9  UNL     1     -34.034   5.393   4.021  1.00 20.00    -0.026 A 
HETATM   10  C10 UNL     1     -33.486   6.355   4.903  1.00 20.00    -0.026 A 
ENDROOT
TORSDOF 0
ENDMDL
MODEL 4
REMARK VINA RESULT:      -5.5      0.040      4.020
REMARK  0 active torsions:
REMARK  status: ('A' for Active; 'I' for Inactive)
ROOT
HETATM    1  C1  UNL     1     -34.797   5.436   6.742  1.00 20.00     0.001 A 
HETATM    2  C2  UNL     1     -35.355   4.490   5.887  1.00 20.00     0.001 A 
HETATM    3  C3  UNL     1     -32.204   7.247   3.044  1.00 20.00     0.001 A 
HETATM    4  C4  UNL     1     -32.762   6.300   2.190  1.00 20.00     0.001 A 
HETATM    5  C5  UNL     1     -33.875   6.361   6.252  1.00 20.00     0.012 A 
HETATM    6  C6  UNL     1     -34.991   4.463   4.540  1.00 20.00     0.012 A 
HETATM    7  C7  UNL     1     -32.569   7.273   4.390  1.00 20.00     0.012 A 
HETATM    8  C8  UNL     1     -33.685   5.375   2.679  1.00 20.00     0.012 A 
HETATM    9  C9  UNL     1     -33.497   6.350   4.900  1.00 20.00    -0.026 A 
HETATM   10  C10 UNL     1     -34.063   5.386   4.031  1.00 20.00    -0.026 A 
ENDROOT
TORSDOF 0
ENDMDL
MODEL 5
REMARK VINA RESULT:      -4.7     12.127     13.936
REMARK  0 active torsions:
REMARK  status: ('A' for Active; 'I' for Inactive)
ROOT
HETATM    1  C1  UNL     1     -35.609  15.320  -7.918  1.00 20.00     0.001 A 
HETATM    2  C2  UNL     1     -35.032  16.574  -7.740  1.00 20.00     0.001 A 
HETATM    3  C3  UNL     1     -33.566  13.793  -3.775  1.00 20.00     0.001 A 
HETATM    4  C4  UNL     1     -32.988  15.047  -3.597  1.00 20.00     0.001 A 
HETATM    5  C5  UNL     1     -35.392  14.313  -6.978  1.00 20.00     0.012 A 
HETATM    6  C6  UNL     1     -34.235  16.825  -6.623  1.00 20.00     0.012 A 
HETATM    7  C7  UNL     1     -34.363  13.544  -4.892  1.00 20.00     0.012 A 
HETATM    8  C8  UNL     1     -33.206  16.056  -4.537  1.00 20.00     0.012 A 
HETATM    9  C9  UNL     1     -34.592  14.546  -5.848  1.00 20.00    -0.026 A 
HETATM   10  C10 UNL     1     -34.005  15.822  -5.667  1.00 20.00    -0.026 A 
ENDROOT
TORSDOF 0
ENDMDL
MODEL 6
REMARK VINA RESULT:      -4.7     12.070     14.112
REMARK  0 active torsions:
REMARK  status: ('A' for Active; 'I' for Inactive)
ROOT
HETATM    1  C1  UNL     1     -33.698  13.649  -3.756  1.00 20.00     0.001 A 
HETATM    2  C2  UNL     1     -33.136  14.887  -3.457  1.00 20.00     0.001 A 
HETATM    3  C3  UNL     1     -35.458  15.452  -7.918  1.00 20.00     0.001 A 
HETATM    4  C4  UNL     1     -34.896  16.691  -7.619  1.00 20.00     0.001 A 
HETATM    5  C5  UNL     1     -34.416  13.476  -4.939  1.00 20.00     0.012 A 
HETATM    6  C6  UNL     1     -33.291  15.956  -4.340  1.00 20.00     0.012 A 
HETATM    7  C7  UNL     1     -35.302  14.384  -7.035  1.00 20.00     0.012 A 
HETATM    8  C8  UNL     1     -34.177  16.864  -6.436  1.00 20.00     0.012 A 
HETATM    9  C9  UNL     1     -34.582  14.540  -5.839  1.00 20.00    -0.026 A 
HETATM   10  C10 UNL     1     -34.011  15.799  -5.535  1.00 20.00    -0.026 A 
ENDROOT
TORSDOF 0
ENDMDL
MODEL 7
REMARK VINA RESULT:      -4.6     12.189     13.948
REMARK  0 active torsions:
REMARK  status: ('A' for Active; 'I' for Inactive)
ROOT
HETATM    1  C1  UNL     1     -34.411  17.560  -7.030  1.00 20.00     0.001 A 
HETATM    2  C2  UNL     1     -33.721  18.108  -5.952  1.00 20.00     0.001 A 
HETATM    3  C3  UNL     1     -34.489  13.244  -4.785  1.00 20.00     0.001 A 
HETATM    4  C4  UNL     1     -33.798  13.792  -3.708  1.00 20.00     0.001 A 
HETATM    5  C5  UNL     1     -34.777  16.214  -7.013  1.00 20.00     0.012 A 
HETATM    6  C6  UNL     1     -33.394  17.312  -4.855  1.00 20.00     0.012 A 
HETATM    7  C7  UNL     1     -34.816  14.041  -5.882  1.00 20.00     0.012 A 
HETATM    8  C8  UNL     1     -33.432  15.139  -3.724  1.00 20.00     0.012 A 
HETATM    9  C9  UNL     1     -34.456  15.398  -5.916  1.00 20.00    -0.026 A 
HETATM   10  C10 UNL     1     -33.754  15.955  -4.821  1.00 20.00    -0.026 A 
ENDROOT
TORSDOF 0
ENDMDL
MODEL 8
REMARK VINA RESULT:      -4.6     12.273     14.323
REMARK  0 active torsions:
REMARK  status: ('A' for Active; 'I' for Inactive)
ROOT
HETATM    1  C1  UNL     1     -34.433  13.257  -4.817  1.00 20.00     0.001 A 
HETATM    2  C2  UNL     1     -33.705  13.850  -3.789  1.00 20.00     0.001 A 
HETATM    3  C3  UNL     1     -34.510  17.494  -7.208  1.00 20.00     0.001 A 
HETATM    4  C4  UNL     1     -33.782  18.087  -6.180  1.00 20.00     0.001 A 
HETATM    5  C5  UNL     1     -34.816  14.011  -5.925  1.00 20.00     0.012 A 
HETATM    6  C6  UNL     1     -33.359  15.199  -3.867  1.00 20.00     0.012 A 
HETATM    7  C7  UNL     1     -34.855  16.145  -7.129  1.00 20.00     0.012 A 
HETATM    8  C8  UNL     1     -33.397  17.333  -5.071  1.00 20.00     0.012 A 
HETATM    9  C9  UNL     1     -34.477  15.370  -6.021  1.00 20.00    -0.026 A 
HETATM   10  C10 UNL     1     -33.737  15.973  -4.975  1.00 20.00    -0.026 A 
ENDROOT
TORSDOF 0
ENDMDL
MODEL 9
REMARK VINA RESULT:      -4.5     11.769     13.341
REMARK  0 active torsions:
REMARK  status: ('A' for Active; 'I' for Inactive)
ROOT
HETATM    1  C1  UNL     1     -33.792  18.000  -2.746  1.00 20.00     0.001 A 
HETATM    2  C2  UNL     1     -34.139  17.108  -1.736  1.00 20.00     0.001 A 
HETATM    3  C3  UNL     1     -34.486  14.511  -6.066  1.00 20.00     0.001 A 
HETATM    4  C4  UNL     1     -34.833  13.619  -5.055  1.00 20.00     0.001 A 
HETATM    5  C5  UNL     1     -33.791  17.582  -4.077  1.00 20.00     0.012 A 
HETATM    6  C6  UNL     1     -34.485  15.794  -2.053  1.00 20.00     0.012 A 
HETATM    7  C7  UNL     1     -34.141  15.825  -5.748  1.00 20.00     0.012 A 
HETATM    8  C8  UNL     1     -34.835  14.037  -3.724  1.00 20.00     0.012 A 
HETATM    9  C9  UNL     1     -34.136  16.263  -4.414  1.00 20.00    -0.026 A 
HETATM   10  C10 UNL     1     -34.489  15.356  -3.386  1.00 20.00    -0.026 A 
ENDROOT
TORSDOF 0
ENDMDL
