MODEL 1
REMARK VINA RESULT:      -5.6      0.000      0.000
REMARK  0 active torsions:
REMARK  status: ('A' for Active; 'I' for Inactive)
ROOT
HETATM    1  C1  UNL     1     -35.177   4.901   5.950  1.00 20.00     0.001 A 
HETATM    2  C2  UNL     1     -34.331   5.868   6.493  1.00 20.00     0.001 A 
HETATM    3  C3  UNL     1     -35.171   4.660   4.577  1.00 20.00     0.007 A 
HETATM    4  C4  UNL     1     -33.478   6.594   5.662  1.00 20.00     0.007 A 
HETATM    5  C5  UNL     1     -34.318   5.386   3.745  1.00 20.00    -0.056 A 
HETATM    6  C6  UNL     1     -33.471   6.353   4.288  1.00 20.00    -0.056 A 
HETATM    7  C7  UNL     1     -34.327   5.111   2.277  1.00 20.00     0.049 C 
HETATM    8  C8  UNL     1     -32.549   7.143   3.418  1.00 20.00     0.049 C 
ENDROOT
TORSDOF 0
ENDMDL
MODEL 2
REMARK VINA RESULT:      -5.6      0.047      2.252
REMARK  0 active torsions:
REMARK  status: ('A' for Active; 'I' for Inactive)
ROOT
HETATM    1  C1  UNL     1     -34.355   5.823   6.500  1.00 20.00     0.001 A 
HETATM    2  C2  UNL     1     -35.188   4.847   5.952  1.00 20.00     0.001 A 
HETATM    3  C3  UNL     1     -33.518   6.571   5.674  1.00 20.00     0.007 A 
HETATM    4  C4  UNL     1     -35.183   4.619   4.576  1.00 20.00     0.007 A 
HETATM    5  C5  UNL     1     -33.513   6.343   4.297  1.00 20.00    -0.056 A 
HETATM    6  C6  UNL     1     -34.345   5.367   3.748  1.00 20.00    -0.056 A 
HETATM    7  C7  UNL     1     -32.609   7.156   3.430  1.00 20.00     0.049 C 
HETATM    8  C8  UNL     1     -34.357   5.104   2.278  1.00 20.00     0.049 C 
ENDROOT
TORSDOF 0
ENDMDL
MODEL 3
REMARK VINA RESULT:      -5.6      0.725      2.058
REMARK  0 active torsions:
REMARK  status: ('A' for Active; 'I' for Inactive)
ROOT
HETATM    1  C1  UNL     1     -35.190   4.173   4.473  1.00 20.00     0.001 A 
HETATM    2  C2  UNL     1     -35.280   4.261   5.863  1.00 20.00     0.001 A 
HETATM    3  C3  UNL     1     -34.460   5.122   3.760  1.00 20.00     0.007 A 
HETATM    4  C4  UNL     1     -34.639   5.299   6.539  1.00 20.00     0.007 A 
HETATM    5  C5  UNL     1     -33.818   6.161   4.436  1.00 20.00    -0.056 A 
HETATM    6  C6  UNL     1     -33.908   6.249   5.825  1.00 20.00    -0.056 A 
HETATM    7  C7  UNL     1     -33.041   7.166   3.651  1.00 20.00     0.049 C 
HETATM    8  C8  UNL     1     -33.231   7.352   6.571  1.00 20.00     0.049 C 
ENDROOT
TORSDOF 0
ENDMDL
MODEL 4
REMARK VINA RESULT:      -5.6      0.719      2.493
REMARK  0 active torsions:
REMARK  status: ('A' for Active; 'I' for Inactive)
ROOT
HETATM    1  C1  UNL     1     -35.275   4.268   5.858  1.00 20.00     0.001 A 
HETATM    2  C2  UNL     1     -35.183   4.180   4.469  1.00 20.00     0.001 A 
HETATM    3  C3  UNL     1     -34.633   5.304   6.535  1.00 20.00     0.007 A 
HETATM    4  C4  UNL     1     -34.450   5.129   3.757  1.00 20.00     0.007 A 
HETATM    5  C5  UNL     1     -33.900   6.254   5.823  1.00 20.00    -0.056 A 
HETATM    6  C6  UNL     1     -33.808   6.166   4.434  1.00 20.00    -0.056 A 
HETATM    7  C7  UNL     1     -33.221   7.356   6.569  1.00 20.00     0.049 C 
HETATM    8  C8  UNL     1     -33.028   7.170   3.650  1.00 20.00     0.049 C 
ENDROOT
TORSDOF 0
ENDMDL
MODEL 5
REMARK VINA RESULT:      -5.1      0.832      3.526
REMARK  0 active torsions:
REMARK  status: ('A' for Active; 'I' for Inactive)
ROOT
HETATM    1  C1  UNL     1     -33.233   6.374   3.015  1.00 20.00     0.001 A 
HETATM    2  C2  UNL     1     -34.075   5.273   2.855  1.00 20.00     0.001 A 
HETATM    3  C3  UNL     1     -33.052   6.937   4.277  1.00 20.00     0.007 A 
HETATM    4  C4  UNL     1     -34.737   4.736   3.959  1.00 20.00     0.007 A 
HETATM    5  C5  UNL     1     -33.715   6.400   5.382  1.00 20.00    -0.056 A 
HETATM    6  C6  UNL     1     -34.557   5.300   5.222  1.00 20.00    -0.056 A 
HETATM    7  C7  UNL     1     -33.506   7.019   6.725  1.00 20.00     0.049 C 
HETATM    8  C8  UNL     1     -35.277   4.708   6.389  1.00 20.00     0.049 C 
ENDROOT
TORSDOF 0
ENDMDL
MODEL 6
REMARK VINA RESULT:      -5.1      0.832      2.751
REMARK  0 active torsions:
REMARK  status: ('A' for Active; 'I' for Inactive)
ROOT
HETATM    1  C1  UNL     1     -34.078   5.267   2.839  1.00 20.00     0.001 A 
HETATM    2  C2  UNL     1     -33.228   6.363   2.990  1.00 20.00     0.001 A 
HETATM    3  C3  UNL     1     -34.739   4.739   3.947  1.00 20.00     0.007 A 
HETATM    4  C4  UNL     1     -33.039   6.931   4.250  1.00 20.00     0.007 A 
HETATM    5  C5  UNL     1     -34.550   5.306   5.207  1.00 20.00    -0.056 A 
HETATM    6  C6  UNL     1     -33.700   6.402   5.359  1.00 20.00    -0.056 A 
HETATM    7  C7  UNL     1     -35.269   4.724   6.380  1.00 20.00     0.049 C 
HETATM    8  C8  UNL     1     -33.482   7.026   6.698  1.00 20.00     0.049 C 
ENDROOT
TORSDOF 0
ENDMDL
MODEL 7
REMARK VINA RESULT:      -4.3      0.787      2.470
REMARK  0 active torsions:
REMARK  status: ('A' for Active; 'I' for Inactive)
ROOT
HETATM    1  C1  UNL     1     -33.083   7.383   5.624  1.00 20.00     0.001 A 
HETATM    2  C2  UNL     1     -33.737   6.748   6.680  1.00 20.00     0.001 A 
HETATM    3  C3  UNL     1     -33.199   6.881   4.328  1.00 20.00     0.007 A 
HETATM    4  C4  UNL     1     -34.508   5.610   6.439  1.00 20.00     0.007 A 
HETATM    5  C5  UNL     1     -33.970   5.743   4.087  1.00 20.00    -0.056 A 
HETATM    6  C6  UNL     1     -34.624   5.108   5.143  1.00 20.00    -0.056 A 
HETATM    7  C7  UNL     1     -34.080   5.223   2.692  1.00 20.00     0.049 C 
HETATM    8  C8  UNL     1     -35.454   3.888   4.911  1.00 20.00     0.049 C 
ENDROOT
TORSDOF 0
ENDMDL
MODEL 8
REMARK VINA RESULT:      -4.3      0.779      2.171
REMARK  0 active torsions:
REMARK  status: ('A' for Active; 'I' for Inactive)
ROOT
HETATM    1  C1  UNL     1     -33.671   6.794   6.612  1.00 20.00     0.001 A 
HETATM    2  C2  UNL     1     -33.035   7.402   5.529  1.00 20.00     0.001 A 
HETATM    3  C3  UNL     1     -34.445   5.651   6.416  1.00 20.00     0.007 A 
HETATM    4  C4  UNL     1     -33.174   6.865   4.249  1.00 20.00     0.007 A 
HETATM    5  C5  UNL     1     -34.584   5.114   5.135  1.00 20.00    -0.056 A 
HETATM    6  C6  UNL     1     -33.948   5.722   4.052  1.00 20.00    -0.056 A 
HETATM    7  C7  UNL     1     -35.417   3.889   4.948  1.00 20.00     0.049 C 
HETATM    8  C8  UNL     1     -34.082   5.167   2.672  1.00 20.00     0.049 C 
ENDROOT
TORSDOF 0
ENDMDL
MODEL 9
REMARK VINA RESULT:      -4.1     11.987     13.584
REMARK  0 active torsions:
REMARK  status: ('A' for Active; 'I' for Inactive)
ROOT
HETATM    1  C1  UNL     1     -33.589  13.802  -3.851  1.00 20.00     0.001 A 
HETATM    2  C2  UNL     1     -33.014  15.054  -3.631  1.00 20.00     0.001 A 
HETATM    3  C3  UNL     1     -34.381  13.587  -4.979  1.00 20.00     0.007 A 
HETATM    4  C4  UNL     1     -33.231  16.091  -4.538  1.00 20.00     0.007 A 
HETATM    5  C5  UNL     1     -34.598  14.623  -5.887  1.00 20.00    -0.056 A 
HETATM    6  C6  UNL     1     -34.023  15.875  -5.666  1.00 20.00    -0.056 A 
HETATM    7  C7  UNL     1     -35.449  14.370  -7.088  1.00 20.00     0.049 C 
HETATM    8  C8  UNL     1     -34.243  17.001  -6.623  1.00 20.00     0.049 C 
ENDROOT
TORSDOF 0
ENDMDL
