MODEL 1
REMARK VINA RESULT:      -4.9      0.000      0.000
REMARK  1 active torsions:
REMARK  status: ('A' for Active; 'I' for Inactive)
REMARK    1  A    between atoms: C6_6  and  N9_9 
ROOT
HETATM    1  N8  UNL     1     -32.593   9.655   1.825  1.00 20.00     0.068 N 
HETATM    2  N9  UNL     1     -31.995   7.367   2.184  1.00 20.00    -0.073 NA
HETATM    3  N10 UNL     1     -32.310   8.562   2.000  1.00 20.00    -0.162 NA
ENDROOT
BRANCH   2   4
HETATM    4  C6  UNL     1     -32.792   6.739   3.147  1.00 20.00     0.093 A 
HETATM    5  C3  UNL     1     -33.707   5.759   2.762  1.00 20.00     0.035 A 
HETATM    6  C1  UNL     1     -34.501   5.132   3.722  1.00 20.00     0.009 A 
HETATM    7  C5  UNL     1     -34.380   5.483   5.066  1.00 20.00    -0.062 A 
HETATM    8  C2  UNL     1     -33.463   6.462   5.451  1.00 20.00     0.009 A 
HETATM    9  C7  UNL     1     -35.229   4.813   6.093  1.00 20.00     0.048 C 
HETATM   10  C4  UNL     1     -32.670   7.090   4.491  1.00 20.00     0.035 A 
ENDBRANCH   2   4
TORSDOF 1
ENDMDL
MODEL 2
REMARK VINA RESULT:      -4.9      0.025      1.528
REMARK  1 active torsions:
REMARK  status: ('A' for Active; 'I' for Inactive)
REMARK    1  A    between atoms: C6_6  and  N9_9 
ROOT
HETATM    1  N8  UNL     1     -32.556   9.666   1.832  1.00 20.00     0.068 N 
HETATM    2  N9  UNL     1     -31.972   7.374   2.182  1.00 20.00    -0.073 NA
HETATM    3  N10 UNL     1     -32.280   8.571   2.002  1.00 20.00    -0.162 NA
ENDROOT
BRANCH   2   4
HETATM    4  C6  UNL     1     -32.775   6.745   3.140  1.00 20.00     0.093 A 
HETATM    5  C3  UNL     1     -32.668   7.105   4.483  1.00 20.00     0.035 A 
HETATM    6  C1  UNL     1     -33.471   6.479   5.438  1.00 20.00     0.009 A 
HETATM    7  C5  UNL     1     -34.378   5.494   5.050  1.00 20.00    -0.062 A 
HETATM    8  C2  UNL     1     -34.485   5.135   3.706  1.00 20.00     0.009 A 
HETATM    9  C7  UNL     1     -35.235   4.825   6.071  1.00 20.00     0.048 C 
HETATM   10  C4  UNL     1     -33.683   5.761   2.751  1.00 20.00     0.035 A 
ENDBRANCH   2   4
TORSDOF 1
ENDMDL
MODEL 3
REMARK VINA RESULT:      -4.2     11.382     11.774
REMARK  1 active torsions:
REMARK  status: ('A' for Active; 'I' for Inactive)
REMARK    1  A    between atoms: C6_6  and  N9_9 
ROOT
HETATM    1  N8  UNL     1     -35.507  14.542  -7.555  1.00 20.00     0.068 N 
HETATM    2  N9  UNL     1     -34.866  13.432  -5.536  1.00 20.00    -0.073 NA
HETATM    3  N10 UNL     1     -35.201  14.016  -6.589  1.00 20.00    -0.162 NA
ENDROOT
BRANCH   2   4
HETATM    4  C6  UNL     1     -34.763  14.301  -4.444  1.00 20.00     0.093 A 
HETATM    5  C3  UNL     1     -35.912  14.716  -3.773  1.00 20.00     0.035 A 
HETATM    6  C1  UNL     1     -35.809  15.582  -2.683  1.00 20.00     0.009 A 
HETATM    7  C5  UNL     1     -34.557  16.032  -2.266  1.00 20.00    -0.062 A 
HETATM    8  C2  UNL     1     -33.407  15.616  -2.937  1.00 20.00     0.009 A 
HETATM    9  C7  UNL     1     -34.446  16.958  -1.102  1.00 20.00     0.048 C 
HETATM   10  C4  UNL     1     -33.510  14.750  -4.027  1.00 20.00     0.035 A 
ENDBRANCH   2   4
TORSDOF 1
ENDMDL
MODEL 4
REMARK VINA RESULT:      -4.2     11.405     11.847
REMARK  1 active torsions:
REMARK  status: ('A' for Active; 'I' for Inactive)
REMARK    1  A    between atoms: C6_6  and  N9_9 
ROOT
HETATM    1  N8  UNL     1     -35.526  14.526  -7.561  1.00 20.00     0.068 N 
HETATM    2  N9  UNL     1     -34.793  13.444  -5.558  1.00 20.00    -0.073 NA
HETATM    3  N10 UNL     1     -35.176  14.013  -6.603  1.00 20.00    -0.162 NA
ENDROOT
BRANCH   2   4
HETATM    4  C6  UNL     1     -34.670  14.322  -4.477  1.00 20.00     0.093 A 
HETATM    5  C3  UNL     1     -33.415  14.816  -4.119  1.00 20.00     0.035 A 
HETATM    6  C1  UNL     1     -33.293  15.693  -3.041  1.00 20.00     0.009 A 
HETATM    7  C5  UNL     1     -34.424  16.076  -2.321  1.00 20.00    -0.062 A 
HETATM    8  C2  UNL     1     -35.679  15.583  -2.679  1.00 20.00     0.009 A 
HETATM    9  C7  UNL     1     -34.293  17.013  -1.168  1.00 20.00     0.048 C 
HETATM   10  C4  UNL     1     -35.801  14.705  -3.757  1.00 20.00     0.035 A 
ENDBRANCH   2   4
TORSDOF 1
ENDMDL
MODEL 5
REMARK VINA RESULT:      -4.1     11.261     11.928
REMARK  1 active torsions:
REMARK  status: ('A' for Active; 'I' for Inactive)
REMARK    1  A    between atoms: C6_6  and  N9_9 
ROOT
HETATM    1  N8  UNL     1     -38.817  15.567  -5.691  1.00 20.00     0.068 N 
HETATM    2  N9  UNL     1     -37.887  14.351  -3.853  1.00 20.00    -0.073 NA
HETATM    3  N10 UNL     1     -38.369  14.987  -4.815  1.00 20.00    -0.162 NA
ENDROOT
BRANCH   2   4
HETATM    4  C6  UNL     1     -36.495  14.456  -3.777  1.00 20.00     0.093 A 
HETATM    5  C3  UNL     1     -35.913  15.502  -3.062  1.00 20.00     0.035 A 
HETATM    6  C1  UNL     1     -34.523  15.606  -2.985  1.00 20.00     0.009 A 
HETATM    7  C5  UNL     1     -33.717  14.664  -3.623  1.00 20.00    -0.062 A 
HETATM    8  C2  UNL     1     -34.299  13.617  -4.338  1.00 20.00     0.009 A 
HETATM    9  C7  UNL     1     -32.232  14.776  -3.542  1.00 20.00     0.048 C 
HETATM   10  C4  UNL     1     -35.689  13.513  -4.415  1.00 20.00     0.035 A 
ENDBRANCH   2   4
TORSDOF 1
ENDMDL
MODEL 6
REMARK VINA RESULT:      -4.1     11.285     12.606
REMARK  1 active torsions:
REMARK  status: ('A' for Active; 'I' for Inactive)
REMARK    1  A    between atoms: C6_6  and  N9_9 
ROOT
HETATM    1  N8  UNL     1     -34.799  16.510  -1.296  1.00 20.00     0.068 N 
HETATM    2  N9  UNL     1     -33.168  15.837  -2.910  1.00 20.00    -0.073 NA
HETATM    3  N10 UNL     1     -34.023  16.188  -2.069  1.00 20.00    -0.162 NA
ENDROOT
BRANCH   2   4
HETATM    4  C6  UNL     1     -33.730  15.490  -4.143  1.00 20.00     0.093 A 
HETATM    5  C3  UNL     1     -33.602  16.350  -5.234  1.00 20.00     0.035 A 
HETATM    6  C1  UNL     1     -34.162  16.003  -6.464  1.00 20.00     0.009 A 
HETATM    7  C5  UNL     1     -34.849  14.797  -6.603  1.00 20.00    -0.062 A 
HETATM    8  C2  UNL     1     -34.976  13.937  -5.512  1.00 20.00     0.009 A 
HETATM    9  C7  UNL     1     -35.448  14.427  -7.918  1.00 20.00     0.048 C 
HETATM   10  C4  UNL     1     -34.416  14.284  -4.282  1.00 20.00     0.035 A 
ENDBRANCH   2   4
TORSDOF 1
ENDMDL
MODEL 7
REMARK VINA RESULT:      -4.1     11.331     12.608
REMARK  1 active torsions:
REMARK  status: ('A' for Active; 'I' for Inactive)
REMARK    1  A    between atoms: C6_6  and  N9_9 
ROOT
HETATM    1  N8  UNL     1     -34.820  16.537  -1.309  1.00 20.00     0.068 N 
HETATM    2  N9  UNL     1     -33.179  15.917  -2.934  1.00 20.00    -0.073 NA
HETATM    3  N10 UNL     1     -34.040  16.240  -2.087  1.00 20.00    -0.162 NA
ENDROOT
BRANCH   2   4
HETATM    4  C6  UNL     1     -33.739  15.547  -4.162  1.00 20.00     0.093 A 
HETATM    5  C3  UNL     1     -34.450  14.352  -4.272  1.00 20.00     0.035 A 
HETATM    6  C1  UNL     1     -35.009  13.984  -5.496  1.00 20.00     0.009 A 
HETATM    7  C5  UNL     1     -34.857  14.810  -6.609  1.00 20.00    -0.062 A 
HETATM    8  C2  UNL     1     -34.146  16.005  -6.499  1.00 20.00     0.009 A 
HETATM    9  C7  UNL     1     -35.454  14.416  -7.918  1.00 20.00     0.048 C 
HETATM   10  C4  UNL     1     -33.587  16.374  -5.274  1.00 20.00     0.035 A 
ENDBRANCH   2   4
TORSDOF 1
ENDMDL
MODEL 8
REMARK VINA RESULT:      -4.0     11.371     12.577
REMARK  1 active torsions:
REMARK  status: ('A' for Active; 'I' for Inactive)
REMARK    1  A    between atoms: C6_6  and  N9_9 
ROOT
HETATM    1  N8  UNL     1     -32.662  13.674  -3.456  1.00 20.00     0.068 N 
HETATM    2  N9  UNL     1     -34.786  12.856  -4.189  1.00 20.00    -0.073 NA
HETATM    3  N10 UNL     1     -33.677  13.288  -3.807  1.00 20.00    -0.162 NA
ENDROOT
BRANCH   2   4
HETATM    4  C6  UNL     1     -35.548  13.827  -4.847  1.00 20.00     0.093 A 
HETATM    5  C3  UNL     1     -36.616  14.438  -4.190  1.00 20.00     0.035 A 
HETATM    6  C1  UNL     1     -37.375  15.407  -4.846  1.00 20.00     0.009 A 
HETATM    7  C5  UNL     1     -37.066  15.766  -6.158  1.00 20.00    -0.062 A 
HETATM    8  C2  UNL     1     -35.997  15.156  -6.814  1.00 20.00     0.009 A 
HETATM    9  C7  UNL     1     -37.878  16.802  -6.860  1.00 20.00     0.048 C 
HETATM   10  C4  UNL     1     -35.238  14.186  -6.158  1.00 20.00     0.035 A 
ENDBRANCH   2   4
TORSDOF 1
ENDMDL
MODEL 9
REMARK VINA RESULT:      -3.9     11.571     12.618
REMARK  1 active torsions:
REMARK  status: ('A' for Active; 'I' for Inactive)
REMARK    1  A    between atoms: C6_6  and  N9_9 
ROOT
HETATM    1  N8  UNL     1     -36.606  14.823  -7.685  1.00 20.00     0.068 N 
HETATM    2  N9  UNL     1     -34.423  14.539  -6.750  1.00 20.00    -0.073 NA
HETATM    3  N10 UNL     1     -35.565  14.689  -7.235  1.00 20.00    -0.162 NA
ENDROOT
BRANCH   2   4
HETATM    4  C6  UNL     1     -34.300  15.094  -5.472  1.00 20.00     0.093 A 
HETATM    5  C3  UNL     1     -33.717  16.351  -5.311  1.00 20.00     0.035 A 
HETATM    6  C1  UNL     1     -33.596  16.905  -4.036  1.00 20.00     0.009 A 
HETATM    7  C5  UNL     1     -34.057  16.203  -2.923  1.00 20.00    -0.062 A 
HETATM    8  C2  UNL     1     -34.640  14.946  -3.084  1.00 20.00     0.009 A 
HETATM    9  C7  UNL     1     -33.926  16.795  -1.560  1.00 20.00     0.048 C 
HETATM   10  C4  UNL     1     -34.762  14.392  -4.359  1.00 20.00     0.035 A 
ENDBRANCH   2   4
TORSDOF 1
ENDMDL
