MODEL 1
REMARK VINA RESULT:      -5.1      0.000      0.000
REMARK  0 active torsions:
REMARK  status: ('A' for Active; 'I' for Inactive)
ROOT
HETATM    1  C1  UNL     1     -32.991   6.961   4.840  1.00 20.00     0.007 A 
HETATM    2  C2  UNL     1     -33.748   6.163   5.700  1.00 20.00     0.007 A 
HETATM    3  C3  UNL     1     -33.822   5.708   2.948  1.00 20.00     0.007 A 
HETATM    4  C4  UNL     1     -34.578   4.911   3.807  1.00 20.00     0.007 A 
HETATM    5  C5  UNL     1     -33.029   6.733   3.465  1.00 20.00    -0.062 A 
HETATM    6  C6  UNL     1     -34.541   5.138   5.183  1.00 20.00    -0.062 A 
HETATM    7  C7  UNL     1     -32.221   7.585   2.545  1.00 20.00     0.048 C 
HETATM    8  C8  UNL     1     -35.348   4.285   6.103  1.00 20.00     0.048 C 
ENDROOT
TORSDOF 0
ENDMDL
MODEL 2
REMARK VINA RESULT:      -5.1      0.328      3.771
REMARK  0 active torsions:
REMARK  status: ('A' for Active; 'I' for Inactive)
ROOT
HETATM    1  C1  UNL     1     -34.767   4.879   4.169  1.00 20.00     0.007 A 
HETATM    2  C2  UNL     1     -34.045   5.600   3.217  1.00 20.00     0.007 A 
HETATM    3  C3  UNL     1     -33.789   6.219   5.926  1.00 20.00     0.007 A 
HETATM    4  C4  UNL     1     -33.068   6.940   4.975  1.00 20.00     0.007 A 
HETATM    5  C5  UNL     1     -34.638   5.189   5.523  1.00 20.00    -0.062 A 
HETATM    6  C6  UNL     1     -33.196   6.631   3.621  1.00 20.00    -0.062 A 
HETATM    7  C7  UNL     1     -35.409   4.418   6.541  1.00 20.00     0.048 C 
HETATM    8  C8  UNL     1     -32.423   7.401   2.603  1.00 20.00     0.048 C 
ENDROOT
TORSDOF 0
ENDMDL
MODEL 3
REMARK VINA RESULT:      -5.1      0.345      1.740
REMARK  0 active torsions:
REMARK  status: ('A' for Active; 'I' for Inactive)
ROOT
HETATM    1  C1  UNL     1     -34.059   5.596   3.232  1.00 20.00     0.007 A 
HETATM    2  C2  UNL     1     -34.778   4.856   4.172  1.00 20.00     0.007 A 
HETATM    3  C3  UNL     1     -33.112   6.934   5.007  1.00 20.00     0.007 A 
HETATM    4  C4  UNL     1     -33.830   6.195   5.947  1.00 20.00     0.007 A 
HETATM    5  C5  UNL     1     -33.227   6.634   3.650  1.00 20.00    -0.062 A 
HETATM    6  C6  UNL     1     -34.663   5.156   5.530  1.00 20.00    -0.062 A 
HETATM    7  C7  UNL     1     -32.459   7.425   2.645  1.00 20.00     0.048 C 
HETATM    8  C8  UNL     1     -35.433   4.367   6.535  1.00 20.00     0.048 C 
ENDROOT
TORSDOF 0
ENDMDL
MODEL 4
REMARK VINA RESULT:      -4.0      9.402     10.478
REMARK  0 active torsions:
REMARK  status: ('A' for Active; 'I' for Inactive)
ROOT
HETATM    1  C1  UNL     1     -42.538   6.100  -2.474  1.00 20.00     0.007 A 
HETATM    2  C2  UNL     1     -42.672   4.812  -2.994  1.00 20.00     0.007 A 
HETATM    3  C3  UNL     1     -40.801   5.319  -0.987  1.00 20.00     0.007 A 
HETATM    4  C4  UNL     1     -40.935   4.032  -1.507  1.00 20.00     0.007 A 
HETATM    5  C5  UNL     1     -41.603   6.353  -1.471  1.00 20.00    -0.062 A 
HETATM    6  C6  UNL     1     -41.870   3.778  -2.510  1.00 20.00    -0.062 A 
HETATM    7  C7  UNL     1     -41.459   7.729  -0.915  1.00 20.00     0.048 C 
HETATM    8  C8  UNL     1     -42.015   2.401  -3.065  1.00 20.00     0.048 C 
ENDROOT
TORSDOF 0
ENDMDL
MODEL 5
REMARK VINA RESULT:      -4.0      9.427     10.432
REMARK  0 active torsions:
REMARK  status: ('A' for Active; 'I' for Inactive)
ROOT
HETATM    1  C1  UNL     1     -40.791   5.239  -1.035  1.00 20.00     0.007 A 
HETATM    2  C2  UNL     1     -40.939   3.956  -1.564  1.00 20.00     0.007 A 
HETATM    3  C3  UNL     1     -42.536   6.046  -2.497  1.00 20.00     0.007 A 
HETATM    4  C4  UNL     1     -42.684   4.764  -3.028  1.00 20.00     0.007 A 
HETATM    5  C5  UNL     1     -41.589   6.282  -1.501  1.00 20.00    -0.062 A 
HETATM    6  C6  UNL     1     -41.887   3.719  -2.561  1.00 20.00    -0.062 A 
HETATM    7  C7  UNL     1     -41.431   7.653  -0.935  1.00 20.00     0.048 C 
HETATM    8  C8  UNL     1     -42.043   2.349  -3.129  1.00 20.00     0.048 C 
ENDROOT
TORSDOF 0
ENDMDL
MODEL 6
REMARK VINA RESULT:      -4.0      9.509     10.693
REMARK  0 active torsions:
REMARK  status: ('A' for Active; 'I' for Inactive)
ROOT
HETATM    1  C1  UNL     1     -40.973   4.005  -1.572  1.00 20.00     0.007 A 
HETATM    2  C2  UNL     1     -40.892   5.301  -1.062  1.00 20.00     0.007 A 
HETATM    3  C3  UNL     1     -42.755   4.697  -3.049  1.00 20.00     0.007 A 
HETATM    4  C4  UNL     1     -42.675   5.993  -2.540  1.00 20.00     0.007 A 
HETATM    5  C5  UNL     1     -41.905   3.703  -2.565  1.00 20.00    -0.062 A 
HETATM    6  C6  UNL     1     -41.743   6.295  -1.547  1.00 20.00    -0.062 A 
HETATM    7  C7  UNL     1     -41.992   2.318  -3.110  1.00 20.00     0.048 C 
HETATM    8  C8  UNL     1     -41.657   7.681  -1.000  1.00 20.00     0.048 C 
ENDROOT
TORSDOF 0
ENDMDL
MODEL 7
REMARK VINA RESULT:      -3.9     12.034     13.355
REMARK  0 active torsions:
REMARK  status: ('A' for Active; 'I' for Inactive)
ROOT
HETATM    1  C1  UNL     1     -33.587  16.686  -3.800  1.00 20.00     0.007 A 
HETATM    2  C2  UNL     1     -33.559  16.361  -5.157  1.00 20.00     0.007 A 
HETATM    3  C3  UNL     1     -35.248  14.973  -3.424  1.00 20.00     0.007 A 
HETATM    4  C4  UNL     1     -35.221  14.648  -4.780  1.00 20.00     0.007 A 
HETATM    5  C5  UNL     1     -34.431  15.992  -2.935  1.00 20.00    -0.062 A 
HETATM    6  C6  UNL     1     -34.376  15.341  -5.646  1.00 20.00    -0.062 A 
HETATM    7  C7  UNL     1     -34.462  16.339  -1.484  1.00 20.00     0.048 C 
HETATM    8  C8  UNL     1     -34.348  14.996  -7.097  1.00 20.00     0.048 C 
ENDROOT
TORSDOF 0
ENDMDL
MODEL 8
REMARK VINA RESULT:      -3.9     12.014     13.123
REMARK  0 active torsions:
REMARK  status: ('A' for Active; 'I' for Inactive)
ROOT
HETATM    1  C1  UNL     1     -33.553  16.327  -5.120  1.00 20.00     0.007 A 
HETATM    2  C2  UNL     1     -33.593  16.652  -3.763  1.00 20.00     0.007 A 
HETATM    3  C3  UNL     1     -35.254  14.648  -4.769  1.00 20.00     0.007 A 
HETATM    4  C4  UNL     1     -35.295  14.972  -3.413  1.00 20.00     0.007 A 
HETATM    5  C5  UNL     1     -34.383  15.325  -5.622  1.00 20.00    -0.062 A 
HETATM    6  C6  UNL     1     -34.465  15.974  -2.910  1.00 20.00    -0.062 A 
HETATM    7  C7  UNL     1     -34.341  14.978  -7.071  1.00 20.00     0.048 C 
HETATM    8  C8  UNL     1     -34.506  16.320  -1.460  1.00 20.00     0.048 C 
ENDROOT
TORSDOF 0
ENDMDL
MODEL 9
REMARK VINA RESULT:      -3.9     12.006     13.204
REMARK  0 active torsions:
REMARK  status: ('A' for Active; 'I' for Inactive)
ROOT
HETATM    1  C1  UNL     1     -35.147  14.614  -4.781  1.00 20.00     0.007 A 
HETATM    2  C2  UNL     1     -35.189  14.926  -3.422  1.00 20.00     0.007 A 
HETATM    3  C3  UNL     1     -33.585  16.421  -5.147  1.00 20.00     0.007 A 
HETATM    4  C4  UNL     1     -33.627  16.732  -3.788  1.00 20.00     0.007 A 
HETATM    5  C5  UNL     1     -34.345  15.362  -5.643  1.00 20.00    -0.062 A 
HETATM    6  C6  UNL     1     -34.428  15.985  -2.925  1.00 20.00    -0.062 A 
HETATM    7  C7  UNL     1     -34.299  15.029  -7.096  1.00 20.00     0.048 C 
HETATM    8  C8  UNL     1     -34.476  16.319  -1.472  1.00 20.00     0.048 C 
ENDROOT
TORSDOF 0
ENDMDL
