MODEL 1
REMARK VINA RESULT:      -6.4      0.000      0.000
REMARK  0 active torsions:
REMARK  status: ('A' for Active; 'I' for Inactive)
ROOT
HETATM    1  C1  UNL     1     -32.144   7.639   2.498  1.00 20.00     0.018 C 
HETATM    2  C2  UNL     1     -32.818   7.008   3.266  1.00 20.00    -0.078 C 
HETATM    3  C3  UNL     1     -35.184   4.790   5.964  1.00 20.00     0.000 A 
HETATM    4  C4  UNL     1     -34.341   5.795   6.439  1.00 20.00     0.001 A 
HETATM    5  C5  UNL     1     -35.246   4.518   4.598  1.00 20.00     0.001 A 
HETATM    6  C6  UNL     1     -33.559   6.527   5.547  1.00 20.00     0.020 A 
HETATM    7  C7  UNL     1     -34.463   5.252   3.705  1.00 20.00     0.020 A 
HETATM    8  C8  UNL     1     -33.620   6.257   4.179  1.00 20.00     0.016 A 
ENDROOT
TORSDOF 0
ENDMDL
MODEL 2
REMARK VINA RESULT:      -6.4      0.027      1.709
REMARK  0 active torsions:
REMARK  status: ('A' for Active; 'I' for Inactive)
ROOT
HETATM    1  C1  UNL     1     -32.153   7.639   2.516  1.00 20.00     0.018 C 
HETATM    2  C2  UNL     1     -32.825   7.004   3.284  1.00 20.00    -0.078 C 
HETATM    3  C3  UNL     1     -35.184   4.777   5.981  1.00 20.00     0.000 A 
HETATM    4  C4  UNL     1     -35.226   4.491   4.616  1.00 20.00     0.001 A 
HETATM    5  C5  UNL     1     -34.362   5.799   6.455  1.00 20.00     0.001 A 
HETATM    6  C6  UNL     1     -34.447   5.228   3.725  1.00 20.00     0.020 A 
HETATM    7  C7  UNL     1     -33.581   6.536   5.563  1.00 20.00     0.020 A 
HETATM    8  C8  UNL     1     -33.623   6.250   4.198  1.00 20.00     0.016 A 
ENDROOT
TORSDOF 0
ENDMDL
MODEL 3
REMARK VINA RESULT:      -4.7      1.377      2.819
REMARK  0 active torsions:
REMARK  status: ('A' for Active; 'I' for Inactive)
ROOT
HETATM    1  C1  UNL     1     -33.248   8.004   7.459  1.00 20.00     0.018 C 
HETATM    2  C2  UNL     1     -33.660   7.154   6.716  1.00 20.00    -0.078 C 
HETATM    3  C3  UNL     1     -35.108   4.169   4.111  1.00 20.00     0.000 A 
HETATM    4  C4  UNL     1     -34.585   5.354   3.592  1.00 20.00     0.001 A 
HETATM    5  C5  UNL     1     -35.152   3.970   5.490  1.00 20.00     0.001 A 
HETATM    6  C6  UNL     1     -34.107   6.340   4.454  1.00 20.00     0.020 A 
HETATM    7  C7  UNL     1     -34.673   4.957   6.353  1.00 20.00     0.020 A 
HETATM    8  C8  UNL     1     -34.150   6.142   5.834  1.00 20.00     0.016 A 
ENDROOT
TORSDOF 0
ENDMDL
MODEL 4
REMARK VINA RESULT:      -4.7      1.382      2.708
REMARK  0 active torsions:
REMARK  status: ('A' for Active; 'I' for Inactive)
ROOT
HETATM    1  C1  UNL     1     -33.247   8.002   7.456  1.00 20.00     0.018 C 
HETATM    2  C2  UNL     1     -33.661   7.151   6.715  1.00 20.00    -0.078 C 
HETATM    3  C3  UNL     1     -35.114   4.166   4.112  1.00 20.00     0.000 A 
HETATM    4  C4  UNL     1     -35.145   3.964   5.492  1.00 20.00     0.001 A 
HETATM    5  C5  UNL     1     -34.603   5.355   3.592  1.00 20.00     0.001 A 
HETATM    6  C6  UNL     1     -34.664   4.951   6.352  1.00 20.00     0.020 A 
HETATM    7  C7  UNL     1     -34.122   6.343   4.453  1.00 20.00     0.020 A 
HETATM    8  C8  UNL     1     -34.153   6.141   5.833  1.00 20.00     0.016 A 
ENDROOT
TORSDOF 0
ENDMDL
MODEL 5
REMARK VINA RESULT:      -4.5      9.141     10.411
REMARK  0 active torsions:
REMARK  status: ('A' for Active; 'I' for Inactive)
ROOT
HETATM    1  C1  UNL     1     -41.974   2.346  -3.149  1.00 20.00     0.018 C 
HETATM    2  C2  UNL     1     -41.807   3.419  -2.635  1.00 20.00    -0.078 C 
HETATM    3  C3  UNL     1     -41.220   7.187  -0.829  1.00 20.00     0.000 A 
HETATM    4  C4  UNL     1     -41.995   7.080  -1.985  1.00 20.00     0.001 A 
HETATM    5  C5  UNL     1     -40.640   6.048  -0.270  1.00 20.00     0.001 A 
HETATM    6  C6  UNL     1     -42.188   5.835  -2.581  1.00 20.00     0.020 A 
HETATM    7  C7  UNL     1     -40.834   4.802  -0.867  1.00 20.00     0.020 A 
HETATM    8  C8  UNL     1     -41.608   4.695  -2.023  1.00 20.00     0.016 A 
ENDROOT
TORSDOF 0
ENDMDL
MODEL 6
REMARK VINA RESULT:      -4.5      9.143     10.337
REMARK  0 active torsions:
REMARK  status: ('A' for Active; 'I' for Inactive)
ROOT
HETATM    1  C1  UNL     1     -41.962   2.374  -3.112  1.00 20.00     0.018 C 
HETATM    2  C2  UNL     1     -41.803   3.453  -2.608  1.00 20.00    -0.078 C 
HETATM    3  C3  UNL     1     -41.246   7.243  -0.841  1.00 20.00     0.000 A 
HETATM    4  C4  UNL     1     -40.664   6.112  -0.266  1.00 20.00     0.001 A 
HETATM    5  C5  UNL     1     -42.012   7.121  -2.000  1.00 20.00     0.001 A 
HETATM    6  C6  UNL     1     -40.849   4.860  -0.850  1.00 20.00     0.020 A 
HETATM    7  C7  UNL     1     -42.196   5.867  -2.585  1.00 20.00     0.020 A 
HETATM    8  C8  UNL     1     -41.614   4.737  -2.010  1.00 20.00     0.016 A 
ENDROOT
TORSDOF 0
ENDMDL
MODEL 7
REMARK VINA RESULT:      -4.5     11.739     12.153
REMARK  0 active torsions:
REMARK  status: ('A' for Active; 'I' for Inactive)
ROOT
HETATM    1  C1  UNL     1     -34.434  17.076  -0.703  1.00 20.00     0.018 C 
HETATM    2  C2  UNL     1     -34.589  16.293  -1.601  1.00 20.00    -0.078 C 
HETATM    3  C3  UNL     1     -35.135  13.543  -4.753  1.00 20.00     0.000 A 
HETATM    4  C4  UNL     1     -33.866  13.733  -4.205  1.00 20.00     0.001 A 
HETATM    5  C5  UNL     1     -36.224  14.262  -4.260  1.00 20.00     0.001 A 
HETATM    6  C6  UNL     1     -33.687  14.642  -3.163  1.00 20.00     0.020 A 
HETATM    7  C7  UNL     1     -36.043  15.172  -3.217  1.00 20.00     0.020 A 
HETATM    8  C8  UNL     1     -34.775  15.361  -2.668  1.00 20.00     0.016 A 
ENDROOT
TORSDOF 0
ENDMDL
MODEL 8
REMARK VINA RESULT:      -4.4     11.722     12.172
REMARK  0 active torsions:
REMARK  status: ('A' for Active; 'I' for Inactive)
ROOT
HETATM    1  C1  UNL     1     -34.432  17.056  -0.692  1.00 20.00     0.018 C 
HETATM    2  C2  UNL     1     -34.591  16.276  -1.591  1.00 20.00    -0.078 C 
HETATM    3  C3  UNL     1     -35.147  13.535  -4.750  1.00 20.00     0.000 A 
HETATM    4  C4  UNL     1     -36.232  14.259  -4.255  1.00 20.00     0.001 A 
HETATM    5  C5  UNL     1     -33.878  13.717  -4.201  1.00 20.00     0.001 A 
HETATM    6  C6  UNL     1     -36.048  15.164  -3.211  1.00 20.00     0.020 A 
HETATM    7  C7  UNL     1     -33.694  14.624  -3.156  1.00 20.00     0.020 A 
HETATM    8  C8  UNL     1     -34.779  15.348  -2.661  1.00 20.00     0.016 A 
ENDROOT
TORSDOF 0
ENDMDL
MODEL 9
REMARK VINA RESULT:      -4.2     11.494     12.811
REMARK  0 active torsions:
REMARK  status: ('A' for Active; 'I' for Inactive)
ROOT
HETATM    1  C1  UNL     1     -34.494  16.648  -0.933  1.00 20.00     0.018 C 
HETATM    2  C2  UNL     1     -34.507  16.111  -2.007  1.00 20.00    -0.078 C 
HETATM    3  C3  UNL     1     -34.551  14.224  -5.780  1.00 20.00     0.000 A 
HETATM    4  C4  UNL     1     -34.557  15.616  -5.696  1.00 20.00     0.001 A 
HETATM    5  C5  UNL     1     -34.530  13.455  -4.617  1.00 20.00     0.001 A 
HETATM    6  C6  UNL     1     -34.543  16.239  -4.449  1.00 20.00     0.020 A 
HETATM    7  C7  UNL     1     -34.516  14.079  -3.369  1.00 20.00     0.020 A 
HETATM    8  C8  UNL     1     -34.521  15.471  -3.285  1.00 20.00     0.016 A 
ENDROOT
TORSDOF 0
ENDMDL
