MODEL 1
REMARK VINA RESULT:      -5.4      0.000      0.000
REMARK  1 active torsions:
REMARK  status: ('A' for Active; 'I' for Inactive)
REMARK    1  A    between atoms: C6_6  and  N8_8 
ROOT
HETATM    1  N7  UNL     1     -31.096   7.640   3.700  1.00 20.00     0.068 N 
HETATM    2  N8  UNL     1     -33.269   6.839   3.104  1.00 20.00    -0.073 NA
HETATM    3  N9  UNL     1     -32.133   7.256   3.419  1.00 20.00    -0.162 NA
ENDROOT
BRANCH   2   4
HETATM    4  C6  UNL     1     -33.882   6.109   4.126  1.00 20.00     0.093 A 
HETATM    5  C4  UNL     1     -33.763   6.529   5.451  1.00 20.00     0.034 A 
HETATM    6  C2  UNL     1     -34.376   5.800   6.472  1.00 20.00     0.002 A 
HETATM    7  C1  UNL     1     -35.107   4.652   6.167  1.00 20.00     0.000 A 
HETATM    8  C3  UNL     1     -35.226   4.232   4.842  1.00 20.00     0.002 A 
HETATM    9  C5  UNL     1     -34.613   4.961   3.821  1.00 20.00     0.034 A 
ENDBRANCH   2   4
TORSDOF 1
ENDMDL
MODEL 2
REMARK VINA RESULT:      -5.4      0.023      1.611
REMARK  1 active torsions:
REMARK  status: ('A' for Active; 'I' for Inactive)
REMARK    1  A    between atoms: C6_6  and  N8_8 
ROOT
HETATM    1  N7  UNL     1     -31.113   7.633   3.698  1.00 20.00     0.068 N 
HETATM    2  N8  UNL     1     -33.281   6.815   3.104  1.00 20.00    -0.073 NA
HETATM    3  N9  UNL     1     -32.148   7.242   3.418  1.00 20.00    -0.162 NA
ENDROOT
BRANCH   2   4
HETATM    4  C6  UNL     1     -33.891   6.087   4.130  1.00 20.00     0.093 A 
HETATM    5  C4  UNL     1     -34.613   4.932   3.832  1.00 20.00     0.034 A 
HETATM    6  C2  UNL     1     -35.221   4.204   4.856  1.00 20.00     0.002 A 
HETATM    7  C1  UNL     1     -35.106   4.633   6.178  1.00 20.00     0.000 A 
HETATM    8  C3  UNL     1     -34.384   5.789   6.477  1.00 20.00     0.002 A 
HETATM    9  C5  UNL     1     -33.776   6.516   5.452  1.00 20.00     0.034 A 
ENDBRANCH   2   4
TORSDOF 1
ENDMDL
MODEL 3
REMARK VINA RESULT:      -4.3     10.304     11.235
REMARK  1 active torsions:
REMARK  status: ('A' for Active; 'I' for Inactive)
REMARK    1  A    between atoms: C6_6  and  N8_8 
ROOT
HETATM    1  N7  UNL     1     -43.065   8.250  -4.776  1.00 20.00     0.068 N 
HETATM    2  N8  UNL     1     -43.365   6.195  -3.589  1.00 20.00    -0.073 NA
HETATM    3  N9  UNL     1     -43.205   7.270  -4.207  1.00 20.00    -0.162 NA
ENDROOT
BRANCH   2   4
HETATM    4  C6  UNL     1     -42.441   6.021  -2.555  1.00 20.00     0.093 A 
HETATM    5  C4  UNL     1     -41.946   4.748  -2.269  1.00 20.00     0.034 A 
HETATM    6  C2  UNL     1     -41.022   4.574  -1.237  1.00 20.00     0.002 A 
HETATM    7  C1  UNL     1     -40.594   5.673  -0.492  1.00 20.00     0.000 A 
HETATM    8  C3  UNL     1     -41.089   6.945  -0.778  1.00 20.00     0.002 A 
HETATM    9  C5  UNL     1     -42.013   7.119  -1.810  1.00 20.00     0.034 A 
ENDBRANCH   2   4
TORSDOF 1
ENDMDL
MODEL 4
REMARK VINA RESULT:      -4.2     11.924     12.209
REMARK  1 active torsions:
REMARK  status: ('A' for Active; 'I' for Inactive)
REMARK    1  A    between atoms: C6_6  and  N8_8 
ROOT
HETATM    1  N7  UNL     1     -34.795  16.912  -0.080  1.00 20.00     0.068 N 
HETATM    2  N8  UNL     1     -33.734  16.652  -2.208  1.00 20.00    -0.073 NA
HETATM    3  N9  UNL     1     -34.291  16.785  -1.097  1.00 20.00    -0.162 NA
ENDROOT
BRANCH   2   4
HETATM    4  C6  UNL     1     -34.236  15.572  -2.941  1.00 20.00     0.093 A 
HETATM    5  C4  UNL     1     -35.611  15.440  -3.135  1.00 20.00     0.034 A 
HETATM    6  C2  UNL     1     -36.112  14.362  -3.867  1.00 20.00     0.002 A 
HETATM    7  C1  UNL     1     -35.237  13.418  -4.405  1.00 20.00     0.000 A 
HETATM    8  C3  UNL     1     -33.862  13.551  -4.211  1.00 20.00     0.002 A 
HETATM    9  C5  UNL     1     -33.361  14.628  -3.478  1.00 20.00     0.034 A 
ENDBRANCH   2   4
TORSDOF 1
ENDMDL
MODEL 5
REMARK VINA RESULT:      -4.2     11.925     12.209
REMARK  1 active torsions:
REMARK  status: ('A' for Active; 'I' for Inactive)
REMARK    1  A    between atoms: C6_6  and  N8_8 
ROOT
HETATM    1  N7  UNL     1     -34.795  16.911  -0.081  1.00 20.00     0.068 N 
HETATM    2  N8  UNL     1     -33.735  16.654  -2.210  1.00 20.00    -0.073 NA
HETATM    3  N9  UNL     1     -34.291  16.785  -1.098  1.00 20.00    -0.162 NA
ENDROOT
BRANCH   2   4
HETATM    4  C6  UNL     1     -34.237  15.574  -2.943  1.00 20.00     0.093 A 
HETATM    5  C4  UNL     1     -33.362  14.630  -3.481  1.00 20.00     0.034 A 
HETATM    6  C2  UNL     1     -33.862  13.552  -4.213  1.00 20.00     0.002 A 
HETATM    7  C1  UNL     1     -35.237  13.419  -4.406  1.00 20.00     0.000 A 
HETATM    8  C3  UNL     1     -36.112  14.364  -3.868  1.00 20.00     0.002 A 
HETATM    9  C5  UNL     1     -35.612  15.442  -3.136  1.00 20.00     0.034 A 
ENDBRANCH   2   4
TORSDOF 1
ENDMDL
MODEL 6
REMARK VINA RESULT:      -4.2     12.172     13.220
REMARK  1 active torsions:
REMARK  status: ('A' for Active; 'I' for Inactive)
REMARK    1  A    between atoms: C6_6  and  N8_8 
ROOT
HETATM    1  N7  UNL     1     -38.555  14.899  -3.730  1.00 20.00     0.068 N 
HETATM    2  N8  UNL     1     -36.489  13.712  -3.938  1.00 20.00    -0.073 NA
HETATM    3  N9  UNL     1     -37.567  14.336  -3.829  1.00 20.00    -0.162 NA
ENDROOT
BRANCH   2   4
HETATM    4  C6  UNL     1     -35.394  14.553  -4.159  1.00 20.00     0.093 A 
HETATM    5  C4  UNL     1     -34.591  14.948  -3.089  1.00 20.00     0.034 A 
HETATM    6  C2  UNL     1     -33.498  15.787  -3.309  1.00 20.00     0.002 A 
HETATM    7  C1  UNL     1     -33.209  16.231  -4.600  1.00 20.00     0.000 A 
HETATM    8  C3  UNL     1     -34.013  15.836  -5.670  1.00 20.00     0.002 A 
HETATM    9  C5  UNL     1     -35.106  14.997  -5.449  1.00 20.00     0.034 A 
ENDBRANCH   2   4
TORSDOF 1
ENDMDL
MODEL 7
REMARK VINA RESULT:      -4.1     12.180     12.796
REMARK  1 active torsions:
REMARK  status: ('A' for Active; 'I' for Inactive)
REMARK    1  A    between atoms: C6_6  and  N8_8 
ROOT
HETATM    1  N7  UNL     1     -38.382  15.620  -5.619  1.00 20.00     0.068 N 
HETATM    2  N8  UNL     1     -37.447  14.311  -3.849  1.00 20.00    -0.073 NA
HETATM    3  N9  UNL     1     -37.933  14.997  -4.775  1.00 20.00    -0.162 NA
ENDROOT
BRANCH   2   4
HETATM    4  C6  UNL     1     -36.056  14.417  -3.767  1.00 20.00     0.093 A 
HETATM    5  C4  UNL     1     -35.476  15.499  -3.104  1.00 20.00     0.034 A 
HETATM    6  C2  UNL     1     -34.087  15.604  -3.022  1.00 20.00     0.002 A 
HETATM    7  C1  UNL     1     -33.279  14.626  -3.602  1.00 20.00     0.000 A 
HETATM    8  C3  UNL     1     -33.858  13.544  -4.265  1.00 20.00     0.002 A 
HETATM    9  C5  UNL     1     -35.248  13.439  -4.347  1.00 20.00     0.034 A 
ENDBRANCH   2   4
TORSDOF 1
ENDMDL
MODEL 8
REMARK VINA RESULT:      -4.1     12.184     13.304
REMARK  1 active torsions:
REMARK  status: ('A' for Active; 'I' for Inactive)
REMARK    1  A    between atoms: C6_6  and  N8_8 
ROOT
HETATM    1  N7  UNL     1     -38.546  14.898  -3.716  1.00 20.00     0.068 N 
HETATM    2  N8  UNL     1     -36.484  13.708  -3.948  1.00 20.00    -0.073 NA
HETATM    3  N9  UNL     1     -37.560  14.333  -3.827  1.00 20.00    -0.162 NA
ENDROOT
BRANCH   2   4
HETATM    4  C6  UNL     1     -35.391  14.548  -4.181  1.00 20.00     0.093 A 
HETATM    5  C4  UNL     1     -35.112  14.988  -5.476  1.00 20.00     0.034 A 
HETATM    6  C2  UNL     1     -34.022  15.828  -5.708  1.00 20.00     0.002 A 
HETATM    7  C1  UNL     1     -33.211  16.227  -4.646  1.00 20.00     0.000 A 
HETATM    8  C3  UNL     1     -33.490  15.787  -3.351  1.00 20.00     0.002 A 
HETATM    9  C5  UNL     1     -34.580  14.948  -3.119  1.00 20.00     0.034 A 
ENDBRANCH   2   4
TORSDOF 1
ENDMDL
MODEL 9
REMARK VINA RESULT:      -4.1     12.191     12.886
REMARK  1 active torsions:
REMARK  status: ('A' for Active; 'I' for Inactive)
REMARK    1  A    between atoms: C6_6  and  N8_8 
ROOT
HETATM    1  N7  UNL     1     -38.391  15.387  -5.803  1.00 20.00     0.068 N 
HETATM    2  N8  UNL     1     -37.506  14.348  -3.839  1.00 20.00    -0.073 NA
HETATM    3  N9  UNL     1     -37.965  14.892  -4.866  1.00 20.00    -0.162 NA
ENDROOT
BRANCH   2   4
HETATM    4  C6  UNL     1     -36.113  14.441  -3.752  1.00 20.00     0.093 A 
HETATM    5  C4  UNL     1     -35.311  13.458  -4.332  1.00 20.00     0.034 A 
HETATM    6  C2  UNL     1     -33.921  13.551  -4.246  1.00 20.00     0.002 A 
HETATM    7  C1  UNL     1     -33.335  14.627  -3.579  1.00 20.00     0.000 A 
HETATM    8  C3  UNL     1     -34.137  15.609  -2.999  1.00 20.00     0.002 A 
HETATM    9  C5  UNL     1     -35.527  15.517  -3.085  1.00 20.00     0.034 A 
ENDBRANCH   2   4
TORSDOF 1
ENDMDL
