MODEL 1
REMARK VINA RESULT:      -5.3      0.000      0.000
REMARK  2 active torsions:
REMARK  status: ('A' for Active; 'I' for Inactive)
REMARK    1  A    between atoms: C6_6  and  C10_10 
REMARK    2  A    between atoms: C9_9  and  C10_10 
ROOT
HETATM    1  C1  UNL     1     -35.136   4.680   5.640  1.00 20.00     0.000 A 
HETATM    2  C2  UNL     1     -34.435   5.635   6.377  1.00 20.00     0.001 A 
HETATM    3  C3  UNL     1     -35.025   4.653   4.250  1.00 20.00     0.001 A 
HETATM    4  C4  UNL     1     -33.625   6.563   5.724  1.00 20.00     0.007 A 
HETATM    5  C5  UNL     1     -34.215   5.581   3.597  1.00 20.00     0.007 A 
HETATM    6  C6  UNL     1     -33.514   6.536   4.334  1.00 20.00    -0.054 A 
ENDROOT
BRANCH   6   7
HETATM    7  C10 UNL     1     -32.632   7.546   3.621  1.00 20.00     0.014 C 
HETATM    8  C8  UNL     1     -31.283   7.681   4.339  1.00 20.00     0.015 C 
BRANCH   7   9
HETATM    9  C9  UNL     1     -32.414   7.216   2.131  1.00 20.00     0.004 C 
HETATM   10  C7  UNL     1     -31.906   8.404   1.322  1.00 20.00     0.006 C 
ENDBRANCH   7   9
ENDBRANCH   6   7
TORSDOF 2
ENDMDL
MODEL 2
REMARK VINA RESULT:      -5.3      0.003      1.528
REMARK  2 active torsions:
REMARK  status: ('A' for Active; 'I' for Inactive)
REMARK    1  A    between atoms: C6_6  and  C10_10 
REMARK    2  A    between atoms: C9_9  and  C10_10 
ROOT
HETATM    1  C1  UNL     1     -35.136   4.680   5.645  1.00 20.00     0.000 A 
HETATM    2  C2  UNL     1     -35.027   4.652   4.255  1.00 20.00     0.001 A 
HETATM    3  C3  UNL     1     -34.434   5.636   6.380  1.00 20.00     0.001 A 
HETATM    4  C4  UNL     1     -34.217   5.579   3.600  1.00 20.00     0.007 A 
HETATM    5  C5  UNL     1     -33.624   6.562   5.725  1.00 20.00     0.007 A 
HETATM    6  C6  UNL     1     -33.515   6.534   4.335  1.00 20.00    -0.054 A 
ENDROOT
BRANCH   6   7
HETATM    7  C10 UNL     1     -32.632   7.544   3.623  1.00 20.00     0.014 C 
HETATM    8  C8  UNL     1     -31.282   7.677   4.338  1.00 20.00     0.015 C 
BRANCH   7   9
HETATM    9  C9  UNL     1     -32.417   7.216   2.131  1.00 20.00     0.004 C 
HETATM   10  C7  UNL     1     -31.909   8.405   1.324  1.00 20.00     0.006 C 
ENDBRANCH   7   9
ENDBRANCH   6   7
TORSDOF 2
ENDMDL
MODEL 3
REMARK VINA RESULT:      -4.8     11.169     11.893
REMARK  2 active torsions:
REMARK  status: ('A' for Active; 'I' for Inactive)
REMARK    1  A    between atoms: C6_6  and  C10_10 
REMARK    2  A    between atoms: C9_9  and  C10_10 
ROOT
HETATM    1  C1  UNL     1     -35.098  13.326  -4.488  1.00 20.00     0.000 A 
HETATM    2  C2  UNL     1     -33.746  13.540  -4.222  1.00 20.00     0.001 A 
HETATM    3  C3  UNL     1     -36.057  14.188  -3.957  1.00 20.00     0.001 A 
HETATM    4  C4  UNL     1     -33.353  14.614  -3.425  1.00 20.00     0.007 A 
HETATM    5  C5  UNL     1     -35.665  15.262  -3.159  1.00 20.00     0.007 A 
HETATM    6  C6  UNL     1     -34.312  15.476  -2.893  1.00 20.00    -0.054 A 
ENDROOT
BRANCH   6   7
HETATM    7  C10 UNL     1     -33.886  16.646  -2.025  1.00 20.00     0.014 C 
HETATM    8  C8  UNL     1     -34.044  17.967  -2.788  1.00 20.00     0.015 C 
BRANCH   7   9
HETATM    9  C9  UNL     1     -34.641  16.711  -0.681  1.00 20.00     0.004 C 
HETATM   10  C7  UNL     1     -34.194  17.871   0.201  1.00 20.00     0.006 C 
ENDBRANCH   7   9
ENDBRANCH   6   7
TORSDOF 2
ENDMDL
MODEL 4
REMARK VINA RESULT:      -4.8     11.109     11.869
REMARK  2 active torsions:
REMARK  status: ('A' for Active; 'I' for Inactive)
REMARK    1  A    between atoms: C6_6  and  C10_10 
REMARK    2  A    between atoms: C9_9  and  C10_10 
ROOT
HETATM    1  C1  UNL     1     -35.071  13.335  -4.471  1.00 20.00     0.000 A 
HETATM    2  C2  UNL     1     -36.027  14.229  -3.990  1.00 20.00     0.001 A 
HETATM    3  C3  UNL     1     -33.727  13.505  -4.135  1.00 20.00     0.001 A 
HETATM    4  C4  UNL     1     -35.642  15.292  -3.174  1.00 20.00     0.007 A 
HETATM    5  C5  UNL     1     -33.342  14.568  -3.319  1.00 20.00     0.007 A 
HETATM    6  C6  UNL     1     -34.298  15.461  -2.838  1.00 20.00    -0.054 A 
ENDROOT
BRANCH   6   7
HETATM    7  C10 UNL     1     -33.877  16.618  -1.949  1.00 20.00     0.014 C 
HETATM    8  C8  UNL     1     -33.900  17.935  -2.734  1.00 20.00     0.015 C 
BRANCH   7   9
HETATM    9  C9  UNL     1     -34.730  16.742  -0.670  1.00 20.00     0.004 C 
HETATM   10  C7  UNL     1     -34.259  17.856   0.258  1.00 20.00     0.006 C 
ENDBRANCH   7   9
ENDBRANCH   6   7
TORSDOF 2
ENDMDL
MODEL 5
REMARK VINA RESULT:      -4.4     11.269     12.283
REMARK  2 active torsions:
REMARK  status: ('A' for Active; 'I' for Inactive)
REMARK    1  A    between atoms: C6_6  and  C10_10 
REMARK    2  A    between atoms: C9_9  and  C10_10 
ROOT
HETATM    1  C1  UNL     1     -33.484  18.831   1.144  1.00 20.00     0.000 A 
HETATM    2  C2  UNL     1     -32.730  18.696  -0.022  1.00 20.00     0.001 A 
HETATM    3  C3  UNL     1     -34.651  18.084   1.310  1.00 20.00     0.001 A 
HETATM    4  C4  UNL     1     -33.143  17.815  -1.021  1.00 20.00     0.007 A 
HETATM    5  C5  UNL     1     -35.063  17.203   0.311  1.00 20.00     0.007 A 
HETATM    6  C6  UNL     1     -34.309  17.068  -0.855  1.00 20.00    -0.054 A 
ENDROOT
BRANCH   6   7
HETATM    7  C10 UNL     1     -34.759  16.108  -1.942  1.00 20.00     0.014 C 
HETATM    8  C8  UNL     1     -35.992  16.658  -2.668  1.00 20.00     0.015 C 
BRANCH   7   9
HETATM    9  C9  UNL     1     -33.645  15.774  -2.955  1.00 20.00     0.004 C 
HETATM   10  C7  UNL     1     -33.791  14.387  -3.570  1.00 20.00     0.006 C 
ENDBRANCH   7   9
ENDBRANCH   6   7
TORSDOF 2
ENDMDL
MODEL 6
REMARK VINA RESULT:      -4.4     11.088     12.102
REMARK  2 active torsions:
REMARK  status: ('A' for Active; 'I' for Inactive)
REMARK    1  A    between atoms: C6_6  and  C10_10 
REMARK    2  A    between atoms: C9_9  and  C10_10 
ROOT
HETATM    1  C1  UNL     1     -34.963  13.286  -4.401  1.00 20.00     0.000 A 
HETATM    2  C2  UNL     1     -36.134  14.010  -4.180  1.00 20.00     0.001 A 
HETATM    3  C3  UNL     1     -33.750  13.752  -3.893  1.00 20.00     0.001 A 
HETATM    4  C4  UNL     1     -36.093  15.199  -3.453  1.00 20.00     0.007 A 
HETATM    5  C5  UNL     1     -33.709  14.940  -3.166  1.00 20.00     0.007 A 
HETATM    6  C6  UNL     1     -34.881  15.664  -2.946  1.00 20.00    -0.054 A 
ENDROOT
BRANCH   6   7
HETATM    7  C10 UNL     1     -34.835  16.959  -2.153  1.00 20.00     0.014 C 
HETATM    8  C8  UNL     1     -34.618  16.670  -0.663  1.00 20.00     0.015 C 
BRANCH   7   9
HETATM    9  C9  UNL     1     -33.768  17.947  -2.667  1.00 20.00     0.004 C 
HETATM   10  C7  UNL     1     -34.020  18.410  -4.098  1.00 20.00     0.006 C 
ENDBRANCH   7   9
ENDBRANCH   6   7
TORSDOF 2
ENDMDL
MODEL 7
REMARK VINA RESULT:      -4.4     11.108     12.548
REMARK  2 active torsions:
REMARK  status: ('A' for Active; 'I' for Inactive)
REMARK    1  A    between atoms: C6_6  and  C10_10 
REMARK    2  A    between atoms: C9_9  and  C10_10 
ROOT
HETATM    1  C1  UNL     1     -34.193  18.262  -0.340  1.00 20.00     0.000 A 
HETATM    2  C2  UNL     1     -33.678  18.798  -1.520  1.00 20.00     0.001 A 
HETATM    3  C3  UNL     1     -34.694  16.960  -0.327  1.00 20.00     0.001 A 
HETATM    4  C4  UNL     1     -33.664  18.034  -2.686  1.00 20.00     0.007 A 
HETATM    5  C5  UNL     1     -34.680  16.196  -1.493  1.00 20.00     0.007 A 
HETATM    6  C6  UNL     1     -34.165  16.733  -2.673  1.00 20.00    -0.054 A 
ENDROOT
BRANCH   6   7
HETATM    7  C10 UNL     1     -34.150  15.899  -3.942  1.00 20.00     0.014 C 
HETATM    8  C8  UNL     1     -33.261  16.556  -5.006  1.00 20.00     0.015 C 
BRANCH   7   9
HETATM    9  C9  UNL     1     -33.710  14.440  -3.705  1.00 20.00     0.004 C 
HETATM   10  C7  UNL     1     -34.780  13.423  -4.088  1.00 20.00     0.006 C 
ENDBRANCH   7   9
ENDBRANCH   6   7
TORSDOF 2
ENDMDL
MODEL 8
REMARK VINA RESULT:      -4.4     11.139     12.456
REMARK  2 active torsions:
REMARK  status: ('A' for Active; 'I' for Inactive)
REMARK    1  A    between atoms: C6_6  and  C10_10 
REMARK    2  A    between atoms: C9_9  and  C10_10 
ROOT
HETATM    1  C1  UNL     1     -34.094  18.323  -0.242  1.00 20.00     0.000 A 
HETATM    2  C2  UNL     1     -34.695  17.067  -0.169  1.00 20.00     0.001 A 
HETATM    3  C3  UNL     1     -33.551  18.767  -1.448  1.00 20.00     0.001 A 
HETATM    4  C4  UNL     1     -34.752  16.254  -1.301  1.00 20.00     0.007 A 
HETATM    5  C5  UNL     1     -33.609  17.954  -2.580  1.00 20.00     0.007 A 
HETATM    6  C6  UNL     1     -34.210  16.698  -2.507  1.00 20.00    -0.054 A 
ENDROOT
BRANCH   6   7
HETATM    7  C10 UNL     1     -34.272  15.814  -3.740  1.00 20.00     0.014 C 
HETATM    8  C8  UNL     1     -33.228  16.256  -4.772  1.00 20.00     0.015 C 
BRANCH   7   9
HETATM    9  C9  UNL     1     -34.107  14.314  -3.420  1.00 20.00     0.004 C 
HETATM   10  C7  UNL     1     -34.991  13.418  -4.279  1.00 20.00     0.006 C 
ENDBRANCH   7   9
ENDBRANCH   6   7
TORSDOF 2
ENDMDL
MODEL 9
REMARK VINA RESULT:      -4.3     11.296     12.479
REMARK  2 active torsions:
REMARK  status: ('A' for Active; 'I' for Inactive)
REMARK    1  A    between atoms: C6_6  and  C10_10 
REMARK    2  A    between atoms: C9_9  and  C10_10 
ROOT
HETATM    1  C1  UNL     1     -33.678  18.823  -1.033  1.00 20.00     0.000 A 
HETATM    2  C2  UNL     1     -33.516  18.601  -2.400  1.00 20.00     0.001 A 
HETATM    3  C3  UNL     1     -34.210  17.819  -0.222  1.00 20.00     0.001 A 
HETATM    4  C4  UNL     1     -33.886  17.378  -2.957  1.00 20.00     0.007 A 
HETATM    5  C5  UNL     1     -34.580  16.596  -0.779  1.00 20.00     0.007 A 
HETATM    6  C6  UNL     1     -34.419  16.375  -2.147  1.00 20.00    -0.054 A 
ENDROOT
BRANCH   6   7
HETATM    7  C10 UNL     1     -34.822  15.042  -2.752  1.00 20.00     0.014 C 
HETATM    8  C8  UNL     1     -36.181  15.159  -3.453  1.00 20.00     0.015 C 
BRANCH   7   9
HETATM    9  C9  UNL     1     -33.767  14.472  -3.722  1.00 20.00     0.004 C 
HETATM   10  C7  UNL     1     -34.330  13.415  -4.665  1.00 20.00     0.006 C 
ENDBRANCH   7   9
ENDBRANCH   6   7
TORSDOF 2
ENDMDL
