MODEL 1
REMARK VINA RESULT:      -6.0      0.000      0.000
REMARK  1 active torsions:
REMARK  status: ('A' for Active; 'I' for Inactive)
REMARK    1  A    between atoms: C6_6  and  C8_8 
ROOT
HETATM    1  C1  UNL     1     -35.163   4.733   6.039  1.00 20.00     0.000 A 
HETATM    2  C2  UNL     1     -35.277   4.392   4.691  1.00 20.00     0.001 A 
HETATM    3  C3  UNL     1     -34.331   5.784   6.425  1.00 20.00     0.001 A 
HETATM    4  C4  UNL     1     -34.559   5.104   3.729  1.00 20.00     0.011 A 
HETATM    5  C5  UNL     1     -33.613   6.494   5.464  1.00 20.00     0.011 A 
HETATM    6  C6  UNL     1     -33.727   6.154   4.115  1.00 20.00    -0.037 A 
ENDROOT
BRANCH   6   7
HETATM    7  C8  UNL     1     -32.978   6.896   3.113  1.00 20.00     0.001 C 
HETATM    8  C7  UNL     1     -31.751   7.359   3.304  1.00 20.00     0.012 C 
ENDBRANCH   6   7
TORSDOF 1
ENDMDL
MODEL 2
REMARK VINA RESULT:      -6.0      0.010      1.709
REMARK  1 active torsions:
REMARK  status: ('A' for Active; 'I' for Inactive)
REMARK    1  A    between atoms: C6_6  and  C8_8 
ROOT
HETATM    1  C1  UNL     1     -35.164   4.740   6.045  1.00 20.00     0.000 A 
HETATM    2  C2  UNL     1     -34.337   5.795   6.431  1.00 20.00     0.001 A 
HETATM    3  C3  UNL     1     -35.273   4.396   4.697  1.00 20.00     0.001 A 
HETATM    4  C4  UNL     1     -33.619   6.506   5.468  1.00 20.00     0.011 A 
HETATM    5  C5  UNL     1     -34.556   5.107   3.736  1.00 20.00     0.011 A 
HETATM    6  C6  UNL     1     -33.729   6.163   4.121  1.00 20.00    -0.037 A 
ENDROOT
BRANCH   6   7
HETATM    7  C8  UNL     1     -32.981   6.904   3.117  1.00 20.00     0.001 C 
HETATM    8  C7  UNL     1     -31.753   7.366   3.306  1.00 20.00     0.012 C 
ENDBRANCH   6   7
TORSDOF 1
ENDMDL
MODEL 3
REMARK VINA RESULT:      -4.7      1.252      2.578
REMARK  1 active torsions:
REMARK  status: ('A' for Active; 'I' for Inactive)
REMARK    1  A    between atoms: C6_6  and  C8_8 
ROOT
HETATM    1  C1  UNL     1     -35.251   4.255   4.278  1.00 20.00     0.000 A 
HETATM    2  C2  UNL     1     -34.720   5.379   3.645  1.00 20.00     0.001 A 
HETATM    3  C3  UNL     1     -35.131   4.112   5.660  1.00 20.00     0.001 A 
HETATM    4  C4  UNL     1     -34.070   6.360   4.394  1.00 20.00     0.011 A 
HETATM    5  C5  UNL     1     -34.481   5.092   6.410  1.00 20.00     0.011 A 
HETATM    6  C6  UNL     1     -33.950   6.216   5.777  1.00 20.00    -0.037 A 
ENDROOT
BRANCH   6   7
HETATM    7  C8  UNL     1     -33.272   7.238   6.559  1.00 20.00     0.001 C 
HETATM    8  C7  UNL     1     -33.847   7.915   7.542  1.00 20.00     0.012 C 
ENDBRANCH   6   7
TORSDOF 1
ENDMDL
MODEL 4
REMARK VINA RESULT:      -4.6      1.217      2.706
REMARK  1 active torsions:
REMARK  status: ('A' for Active; 'I' for Inactive)
REMARK    1  A    between atoms: C6_6  and  C8_8 
ROOT
HETATM    1  C1  UNL     1     -35.238   4.302   4.200  1.00 20.00     0.000 A 
HETATM    2  C2  UNL     1     -35.221   4.163   5.587  1.00 20.00     0.001 A 
HETATM    3  C3  UNL     1     -34.609   5.392   3.600  1.00 20.00     0.001 A 
HETATM    4  C4  UNL     1     -34.574   5.115   6.376  1.00 20.00     0.011 A 
HETATM    5  C5  UNL     1     -33.963   6.345   4.388  1.00 20.00     0.011 A 
HETATM    6  C6  UNL     1     -33.945   6.206   5.776  1.00 20.00    -0.037 A 
ENDROOT
BRANCH   6   7
HETATM    7  C8  UNL     1     -33.270   7.199   6.597  1.00 20.00     0.001 C 
HETATM    8  C7  UNL     1     -33.886   7.953   7.496  1.00 20.00     0.012 C 
ENDBRANCH   6   7
TORSDOF 1
ENDMDL
MODEL 5
REMARK VINA RESULT:      -4.5      0.859      3.711
REMARK  1 active torsions:
REMARK  status: ('A' for Active; 'I' for Inactive)
REMARK    1  A    between atoms: C6_6  and  C8_8 
ROOT
HETATM    1  C1  UNL     1     -32.934   6.276   2.512  1.00 20.00     0.000 A 
HETATM    2  C2  UNL     1     -32.417   6.837   3.680  1.00 20.00     0.001 A 
HETATM    3  C3  UNL     1     -34.057   5.451   2.572  1.00 20.00     0.001 A 
HETATM    4  C4  UNL     1     -33.025   6.574   4.909  1.00 20.00     0.011 A 
HETATM    5  C5  UNL     1     -34.664   5.188   3.800  1.00 20.00     0.011 A 
HETATM    6  C6  UNL     1     -34.148   5.749   4.969  1.00 20.00    -0.037 A 
ENDROOT
BRANCH   6   7
HETATM    7  C8  UNL     1     -34.781   5.474   6.248  1.00 20.00     0.001 C 
HETATM    8  C7  UNL     1     -35.244   4.282   6.600  1.00 20.00     0.012 C 
ENDBRANCH   6   7
TORSDOF 1
ENDMDL
MODEL 6
REMARK VINA RESULT:      -4.5      0.858      3.328
REMARK  1 active torsions:
REMARK  status: ('A' for Active; 'I' for Inactive)
REMARK    1  A    between atoms: C6_6  and  C8_8 
ROOT
HETATM    1  C1  UNL     1     -32.926   6.281   2.504  1.00 20.00     0.000 A 
HETATM    2  C2  UNL     1     -34.057   5.466   2.566  1.00 20.00     0.001 A 
HETATM    3  C3  UNL     1     -32.402   6.838   3.670  1.00 20.00     0.001 A 
HETATM    4  C4  UNL     1     -34.664   5.208   3.796  1.00 20.00     0.011 A 
HETATM    5  C5  UNL     1     -33.009   6.580   4.899  1.00 20.00     0.011 A 
HETATM    6  C6  UNL     1     -34.140   5.765   4.962  1.00 20.00    -0.037 A 
ENDROOT
BRANCH   6   7
HETATM    7  C8  UNL     1     -34.772   5.497   6.244  1.00 20.00     0.001 C 
HETATM    8  C7  UNL     1     -35.247   4.312   6.598  1.00 20.00     0.012 C 
ENDBRANCH   6   7
TORSDOF 1
ENDMDL
MODEL 7
REMARK VINA RESULT:      -4.4     11.810     12.226
REMARK  1 active torsions:
REMARK  status: ('A' for Active; 'I' for Inactive)
REMARK    1  A    between atoms: C6_6  and  C8_8 
ROOT
HETATM    1  C1  UNL     1     -35.068  13.406  -4.473  1.00 20.00     0.000 A 
HETATM    2  C2  UNL     1     -36.090  14.230  -4.002  1.00 20.00     0.001 A 
HETATM    3  C3  UNL     1     -33.748  13.643  -4.090  1.00 20.00     0.001 A 
HETATM    4  C4  UNL     1     -35.791  15.291  -3.146  1.00 20.00     0.011 A 
HETATM    5  C5  UNL     1     -33.449  14.704  -3.235  1.00 20.00     0.011 A 
HETATM    6  C6  UNL     1     -34.471  15.528  -2.763  1.00 20.00    -0.037 A 
ENDROOT
BRANCH   6   7
HETATM    7  C8  UNL     1     -34.159  16.634  -1.871  1.00 20.00     0.001 C 
HETATM    8  C7  UNL     1     -34.635  16.743  -0.639  1.00 20.00     0.012 C 
ENDBRANCH   6   7
TORSDOF 1
ENDMDL
MODEL 8
REMARK VINA RESULT:      -4.4     11.815     12.251
REMARK  1 active torsions:
REMARK  status: ('A' for Active; 'I' for Inactive)
REMARK    1  A    between atoms: C6_6  and  C8_8 
ROOT
HETATM    1  C1  UNL     1     -35.076  13.406  -4.462  1.00 20.00     0.000 A 
HETATM    2  C2  UNL     1     -33.752  13.645  -4.094  1.00 20.00     0.001 A 
HETATM    3  C3  UNL     1     -36.094  14.228  -3.981  1.00 20.00     0.001 A 
HETATM    4  C4  UNL     1     -33.447  14.710  -3.244  1.00 20.00     0.011 A 
HETATM    5  C5  UNL     1     -35.790  15.291  -3.132  1.00 20.00     0.011 A 
HETATM    6  C6  UNL     1     -34.465  15.532  -2.763  1.00 20.00    -0.037 A 
ENDROOT
BRANCH   6   7
HETATM    7  C8  UNL     1     -34.148  16.641  -1.877  1.00 20.00     0.001 C 
HETATM    8  C7  UNL     1     -34.619  16.757  -0.644  1.00 20.00     0.012 C 
ENDBRANCH   6   7
TORSDOF 1
ENDMDL
MODEL 9
REMARK VINA RESULT:      -4.2      9.169     10.499
REMARK  1 active torsions:
REMARK  status: ('A' for Active; 'I' for Inactive)
REMARK    1  A    between atoms: C6_6  and  C8_8 
ROOT
HETATM    1  C1  UNL     1     -41.103   7.079  -0.940  1.00 20.00     0.000 A 
HETATM    2  C2  UNL     1     -40.637   5.883  -0.394  1.00 20.00     0.001 A 
HETATM    3  C3  UNL     1     -41.952   7.057  -2.046  1.00 20.00     0.001 A 
HETATM    4  C4  UNL     1     -41.023   4.664  -0.954  1.00 20.00     0.011 A 
HETATM    5  C5  UNL     1     -42.337   5.840  -2.606  1.00 20.00     0.011 A 
HETATM    6  C6  UNL     1     -41.872   4.642  -2.060  1.00 20.00    -0.037 A 
ENDROOT
BRANCH   6   7
HETATM    7  C8  UNL     1     -42.274   3.373  -2.645  1.00 20.00     0.001 C 
HETATM    8  C7  UNL     1     -41.432   2.530  -3.226  1.00 20.00     0.012 C 
ENDBRANCH   6   7
TORSDOF 1
ENDMDL
