MODEL 1
REMARK VINA RESULT:      -4.7      0.000      0.000
REMARK  0 active torsions:
REMARK  status: ('A' for Active; 'I' for Inactive)
ROOT
HETATM    1  C1  UNL     1     -35.295   4.664   5.848  1.00 20.00     0.001 A 
HETATM    2  C2  UNL     1     -34.666   5.589   6.669  1.00 20.00     0.001 A 
HETATM    3  C3  UNL     1     -34.981   4.598   4.489  1.00 20.00     0.013 A 
HETATM    4  C4  UNL     1     -33.711   6.466   6.151  1.00 20.00     0.019 A 
HETATM    5  C5  UNL     1     -33.533   5.596   2.587  1.00 20.00     0.020 A 
HETATM    6  C6  UNL     1     -32.584   6.581   2.448  1.00 20.00     0.051 A 
HETATM    7  C7  UNL     1     -34.017   5.474   3.933  1.00 20.00    -0.019 A 
HETATM    8  C8  UNL     1     -33.397   6.398   4.779  1.00 20.00     0.015 A 
HETATM    9  S9  UNL     1     -32.260   7.371   3.923  1.00 20.00    -0.101 SA
ENDROOT
TORSDOF 0
ENDMDL
MODEL 2
REMARK VINA RESULT:      -4.5      1.072      2.022
REMARK  0 active torsions:
REMARK  status: ('A' for Active; 'I' for Inactive)
ROOT
HETATM    1  C1  UNL     1     -34.658   5.609   6.752  1.00 20.00     0.001 A 
HETATM    2  C2  UNL     1     -35.292   4.644   5.984  1.00 20.00     0.001 A 
HETATM    3  C3  UNL     1     -33.737   6.483   6.168  1.00 20.00     0.013 A 
HETATM    4  C4  UNL     1     -35.022   4.529   4.618  1.00 20.00     0.019 A 
HETATM    5  C5  UNL     1     -32.545   7.164   3.972  1.00 20.00     0.020 A 
HETATM    6  C6  UNL     1     -32.539   6.762   2.657  1.00 20.00     0.051 A 
HETATM    7  C7  UNL     1     -33.440   6.392   4.787  1.00 20.00    -0.019 A 
HETATM    8  C8  UNL     1     -34.092   5.411   4.033  1.00 20.00     0.015 A 
HETATM    9  S9  UNL     1     -33.601   5.459   2.381  1.00 20.00    -0.101 SA
ENDROOT
TORSDOF 0
ENDMDL
MODEL 3
REMARK VINA RESULT:      -4.2      1.556      3.845
REMARK  0 active torsions:
REMARK  status: ('A' for Active; 'I' for Inactive)
ROOT
HETATM    1  C1  UNL     1     -32.132   7.211   3.177  1.00 20.00     0.001 A 
HETATM    2  C2  UNL     1     -32.710   6.271   2.336  1.00 20.00     0.001 A 
HETATM    3  C3  UNL     1     -32.511   7.285   4.519  1.00 20.00     0.013 A 
HETATM    4  C4  UNL     1     -33.679   5.387   2.816  1.00 20.00     0.019 A 
HETATM    5  C5  UNL     1     -34.036   6.287   6.360  1.00 20.00     0.020 A 
HETATM    6  C6  UNL     1     -34.980   5.292   6.462  1.00 20.00     0.051 A 
HETATM    7  C7  UNL     1     -33.490   6.403   5.037  1.00 20.00    -0.019 A 
HETATM    8  C8  UNL     1     -34.059   5.464   4.170  1.00 20.00     0.015 A 
HETATM    9  S9  UNL     1     -35.224   4.485   4.981  1.00 20.00    -0.101 SA
ENDROOT
TORSDOF 0
ENDMDL
MODEL 4
REMARK VINA RESULT:      -4.2     12.133     13.990
REMARK  0 active torsions:
REMARK  status: ('A' for Active; 'I' for Inactive)
ROOT
HETATM    1  C1  UNL     1     -33.043  15.055  -3.632  1.00 20.00     0.001 A 
HETATM    2  C2  UNL     1     -33.639  13.817  -3.824  1.00 20.00     0.001 A 
HETATM    3  C3  UNL     1     -33.216  16.074  -4.572  1.00 20.00     0.013 A 
HETATM    4  C4  UNL     1     -34.418  13.570  -4.957  1.00 20.00     0.019 A 
HETATM    5  C5  UNL     1     -34.318  16.733  -6.822  1.00 20.00     0.020 A 
HETATM    6  C6  UNL     1     -35.119  16.139  -7.768  1.00 20.00     0.051 A 
HETATM    7  C7  UNL     1     -33.999  15.855  -5.730  1.00 20.00    -0.019 A 
HETATM    8  C8  UNL     1     -34.589  14.599  -5.903  1.00 20.00     0.015 A 
HETATM    9  S9  UNL     1     -35.500  14.528  -7.365  1.00 20.00    -0.101 SA
ENDROOT
TORSDOF 0
ENDMDL
MODEL 5
REMARK VINA RESULT:      -4.2      1.303      3.273
REMARK  0 active torsions:
REMARK  status: ('A' for Active; 'I' for Inactive)
ROOT
HETATM    1  C1  UNL     1     -32.912   6.131   2.170  1.00 20.00     0.001 A 
HETATM    2  C2  UNL     1     -32.286   7.063   2.984  1.00 20.00     0.001 A 
HETATM    3  C3  UNL     1     -33.876   5.267   2.698  1.00 20.00     0.013 A 
HETATM    4  C4  UNL     1     -32.606   7.153   4.340  1.00 20.00     0.019 A 
HETATM    5  C5  UNL     1     -35.166   4.565   4.831  1.00 20.00     0.020 A 
HETATM    6  C6  UNL     1     -35.213   4.938   6.154  1.00 20.00     0.051 A 
HETATM    7  C7  UNL     1     -34.222   5.333   4.069  1.00 20.00    -0.019 A 
HETATM    8  C8  UNL     1     -33.577   6.281   4.870  1.00 20.00     0.015 A 
HETATM    9  S9  UNL     1     -34.132   6.208   6.501  1.00 20.00    -0.101 SA
ENDROOT
TORSDOF 0
ENDMDL
MODEL 6
REMARK VINA RESULT:      -4.2     12.188     13.793
REMARK  0 active torsions:
REMARK  status: ('A' for Active; 'I' for Inactive)
ROOT
HETATM    1  C1  UNL     1     -33.604  13.815  -3.782  1.00 20.00     0.001 A 
HETATM    2  C2  UNL     1     -33.059  15.084  -3.656  1.00 20.00     0.001 A 
HETATM    3  C3  UNL     1     -34.399  13.495  -4.886  1.00 20.00     0.013 A 
HETATM    4  C4  UNL     1     -33.295  16.060  -4.628  1.00 20.00     0.019 A 
HETATM    5  C5  UNL     1     -35.430  14.372  -7.094  1.00 20.00     0.020 A 
HETATM    6  C6  UNL     1     -35.438  15.545  -7.811  1.00 20.00     0.051 A 
HETATM    7  C7  UNL     1     -34.657  14.462  -5.887  1.00 20.00    -0.019 A 
HETATM    8  C8  UNL     1     -34.097  15.734  -5.738  1.00 20.00     0.015 A 
HETATM    9  S9  UNL     1     -34.522  16.766  -7.053  1.00 20.00    -0.101 SA
ENDROOT
TORSDOF 0
ENDMDL
MODEL 7
REMARK VINA RESULT:      -4.1     11.921     13.280
REMARK  0 active torsions:
REMARK  status: ('A' for Active; 'I' for Inactive)
ROOT
HETATM    1  C1  UNL     1     -34.683  13.316  -4.707  1.00 20.00     0.001 A 
HETATM    2  C2  UNL     1     -34.638  14.047  -5.886  1.00 20.00     0.001 A 
HETATM    3  C3  UNL     1     -34.484  13.948  -3.477  1.00 20.00     0.013 A 
HETATM    4  C4  UNL     1     -34.393  15.422  -5.862  1.00 20.00     0.019 A 
HETATM    5  C5  UNL     1     -34.000  16.201  -2.293  1.00 20.00     0.020 A 
HETATM    6  C6  UNL     1     -33.794  17.511  -2.656  1.00 20.00     0.051 A 
HETATM    7  C7  UNL     1     -34.233  15.340  -3.419  1.00 20.00    -0.019 A 
HETATM    8  C8  UNL     1     -34.192  16.056  -4.620  1.00 20.00     0.015 A 
HETATM    9  S9  UNL     1     -33.877  17.729  -4.344  1.00 20.00    -0.101 SA
ENDROOT
TORSDOF 0
ENDMDL
MODEL 8
REMARK VINA RESULT:      -4.0     12.107     13.840
REMARK  0 active torsions:
REMARK  status: ('A' for Active; 'I' for Inactive)
ROOT
HETATM    1  C1  UNL     1     -34.473  13.257  -4.765  1.00 20.00     0.001 A 
HETATM    2  C2  UNL     1     -33.783  13.857  -3.722  1.00 20.00     0.001 A 
HETATM    3  C3  UNL     1     -34.852  14.005  -5.882  1.00 20.00     0.013 A 
HETATM    4  C4  UNL     1     -33.458  15.215  -3.770  1.00 20.00     0.019 A 
HETATM    5  C5  UNL     1     -34.818  16.347  -6.989  1.00 20.00     0.020 A 
HETATM    6  C6  UNL     1     -34.341  17.602  -6.688  1.00 20.00     0.051 A 
HETATM    7  C7  UNL     1     -34.539  15.384  -5.961  1.00 20.00    -0.019 A 
HETATM    8  C8  UNL     1     -33.844  15.966  -4.897  1.00 20.00     0.015 A 
HETATM    9  S9  UNL     1     -33.555  17.643  -5.177  1.00 20.00    -0.101 SA
ENDROOT
TORSDOF 0
ENDMDL
MODEL 9
REMARK VINA RESULT:      -4.0     12.159     14.174
REMARK  0 active torsions:
REMARK  status: ('A' for Active; 'I' for Inactive)
ROOT
HETATM    1  C1  UNL     1     -35.261  15.581  -7.860  1.00 20.00     0.001 A 
HETATM    2  C2  UNL     1     -34.607  16.715  -7.398  1.00 20.00     0.001 A 
HETATM    3  C3  UNL     1     -35.304  14.424  -7.078  1.00 20.00     0.013 A 
HETATM    4  C4  UNL     1     -33.982  16.717  -6.149  1.00 20.00     0.019 A 
HETATM    5  C5  UNL     1     -34.588  13.340  -4.837  1.00 20.00     0.020 A 
HETATM    6  C6  UNL     1     -33.888  13.708  -3.712  1.00 20.00     0.051 A 
HETATM    7  C7  UNL     1     -34.679  14.394  -5.808  1.00 20.00    -0.019 A 
HETATM    8  C8  UNL     1     -34.026  15.548  -5.364  1.00 20.00     0.015 A 
HETATM    9  S9  UNL     1     -33.332  15.317  -3.803  1.00 20.00    -0.101 SA
ENDROOT
TORSDOF 0
ENDMDL
