MODEL 1
REMARK VINA RESULT:      -4.8      0.000      0.000
REMARK  1 active torsions:
REMARK  status: ('A' for Active; 'I' for Inactive)
REMARK    1  A    between atoms: C6_6  and  S8_8 
ROOT
HETATM    1  C1  UNL     1     -35.138   4.822   6.066  1.00 20.00     0.000 A 
HETATM    2  C2  UNL     1     -34.306   5.884   6.422  1.00 20.00     0.001 A 
HETATM    3  C3  UNL     1     -35.252   4.443   4.728  1.00 20.00     0.001 A 
HETATM    4  C4  UNL     1     -33.588   6.566   5.440  1.00 20.00     0.018 A 
HETATM    5  C5  UNL     1     -34.533   5.125   3.747  1.00 20.00     0.018 A 
HETATM    6  C6  UNL     1     -33.701   6.187   4.102  1.00 20.00    -0.000 A 
ENDROOT
BRANCH   6   7
HETATM    7  S8  UNL     1     -32.784   7.060   2.848  1.00 20.00    -0.134 SA
HETATM    8  C7  UNL     1     -31.367   7.597   3.831  1.00 20.00     0.095 C 
ENDBRANCH   6   7
TORSDOF 1
ENDMDL
MODEL 2
REMARK VINA RESULT:      -4.8      0.018      1.708
REMARK  1 active torsions:
REMARK  status: ('A' for Active; 'I' for Inactive)
REMARK    1  A    between atoms: C6_6  and  S8_8 
ROOT
HETATM    1  C1  UNL     1     -35.138   4.808   6.058  1.00 20.00     0.000 A 
HETATM    2  C2  UNL     1     -35.262   4.439   4.718  1.00 20.00     0.001 A 
HETATM    3  C3  UNL     1     -34.300   5.864   6.416  1.00 20.00     0.001 A 
HETATM    4  C4  UNL     1     -34.549   5.128   3.737  1.00 20.00     0.018 A 
HETATM    5  C5  UNL     1     -33.587   6.553   5.434  1.00 20.00     0.018 A 
HETATM    6  C6  UNL     1     -33.711   6.185   4.095  1.00 20.00    -0.000 A 
ENDROOT
BRANCH   6   7
HETATM    7  S8  UNL     1     -32.800   7.063   2.840  1.00 20.00    -0.134 SA
HETATM    8  C7  UNL     1     -31.370   7.582   3.814  1.00 20.00     0.095 C 
ENDBRANCH   6   7
TORSDOF 1
ENDMDL
MODEL 3
REMARK VINA RESULT:      -3.7      9.651     10.820
REMARK  1 active torsions:
REMARK  status: ('A' for Active; 'I' for Inactive)
REMARK    1  A    between atoms: C6_6  and  S8_8 
ROOT
HETATM    1  C1  UNL     1     -40.978   6.941  -0.964  1.00 20.00     0.000 A 
HETATM    2  C2  UNL     1     -40.680   5.629  -0.597  1.00 20.00     0.001 A 
HETATM    3  C3  UNL     1     -41.871   7.188  -2.007  1.00 20.00     0.001 A 
HETATM    4  C4  UNL     1     -41.275   4.563  -1.273  1.00 20.00     0.018 A 
HETATM    5  C5  UNL     1     -42.466   6.122  -2.683  1.00 20.00     0.018 A 
HETATM    6  C6  UNL     1     -42.167   4.809  -2.316  1.00 20.00    -0.000 A 
ENDROOT
BRANCH   6   7
HETATM    7  S8  UNL     1     -42.926   3.448  -3.180  1.00 20.00    -0.134 SA
HETATM    8  C7  UNL     1     -41.496   2.356  -3.336  1.00 20.00     0.095 C 
ENDBRANCH   6   7
TORSDOF 1
ENDMDL
MODEL 4
REMARK VINA RESULT:      -3.7      9.652     10.851
REMARK  1 active torsions:
REMARK  status: ('A' for Active; 'I' for Inactive)
REMARK    1  A    between atoms: C6_6  and  S8_8 
ROOT
HETATM    1  C1  UNL     1     -40.983   6.943  -0.972  1.00 20.00     0.000 A 
HETATM    2  C2  UNL     1     -41.874   7.178  -2.019  1.00 20.00     0.001 A 
HETATM    3  C3  UNL     1     -40.688   5.634  -0.588  1.00 20.00     0.001 A 
HETATM    4  C4  UNL     1     -42.469   6.106  -2.683  1.00 20.00     0.018 A 
HETATM    5  C5  UNL     1     -41.283   4.562  -1.253  1.00 20.00     0.018 A 
HETATM    6  C6  UNL     1     -42.174   4.797  -2.301  1.00 20.00    -0.000 A 
ENDROOT
BRANCH   6   7
HETATM    7  S8  UNL     1     -42.935   3.428  -3.149  1.00 20.00    -0.134 SA
HETATM    8  C7  UNL     1     -41.497   2.350  -3.332  1.00 20.00     0.095 C 
ENDBRANCH   6   7
TORSDOF 1
ENDMDL
MODEL 5
REMARK VINA RESULT:      -3.7     11.995     12.341
REMARK  1 active torsions:
REMARK  status: ('A' for Active; 'I' for Inactive)
REMARK    1  A    between atoms: C6_6  and  S8_8 
ROOT
HETATM    1  C1  UNL     1     -35.217  13.434  -4.394  1.00 20.00     0.000 A 
HETATM    2  C2  UNL     1     -36.161  14.334  -3.899  1.00 20.00     0.001 A 
HETATM    3  C3  UNL     1     -33.857  13.661  -4.179  1.00 20.00     0.001 A 
HETATM    4  C4  UNL     1     -35.745  15.460  -3.188  1.00 20.00     0.018 A 
HETATM    5  C5  UNL     1     -33.442  14.787  -3.468  1.00 20.00     0.018 A 
HETATM    6  C6  UNL     1     -34.386  15.687  -2.973  1.00 20.00    -0.000 A 
ENDROOT
BRANCH   6   7
HETATM    7  S8  UNL     1     -33.856  17.127  -2.067  1.00 20.00    -0.134 SA
HETATM    8  C7  UNL     1     -34.701  16.823  -0.499  1.00 20.00     0.095 C 
ENDBRANCH   6   7
TORSDOF 1
ENDMDL
MODEL 6
REMARK VINA RESULT:      -3.7     12.045     12.361
REMARK  1 active torsions:
REMARK  status: ('A' for Active; 'I' for Inactive)
REMARK    1  A    between atoms: C6_6  and  S8_8 
ROOT
HETATM    1  C1  UNL     1     -34.172  13.458  -4.325  1.00 20.00     0.000 A 
HETATM    2  C2  UNL     1     -33.215  14.308  -3.771  1.00 20.00     0.001 A 
HETATM    3  C3  UNL     1     -35.529  13.756  -4.194  1.00 20.00     0.001 A 
HETATM    4  C4  UNL     1     -33.615  15.456  -3.088  1.00 20.00     0.018 A 
HETATM    5  C5  UNL     1     -35.928  14.905  -3.510  1.00 20.00     0.018 A 
HETATM    6  C6  UNL     1     -34.970  15.755  -2.956  1.00 20.00    -0.000 A 
ENDROOT
BRANCH   6   7
HETATM    7  S8  UNL     1     -35.480  17.221  -2.082  1.00 20.00    -0.134 SA
HETATM    8  C7  UNL     1     -34.682  16.916  -0.491  1.00 20.00     0.095 C 
ENDBRANCH   6   7
TORSDOF 1
ENDMDL
MODEL 7
REMARK VINA RESULT:      -3.6     12.221     13.744
REMARK  1 active torsions:
REMARK  status: ('A' for Active; 'I' for Inactive)
REMARK    1  A    between atoms: C6_6  and  S8_8 
ROOT
HETATM    1  C1  UNL     1     -33.125  15.007  -3.645  1.00 20.00     0.000 A 
HETATM    2  C2  UNL     1     -33.178  16.056  -4.563  1.00 20.00     0.001 A 
HETATM    3  C3  UNL     1     -33.797  13.813  -3.910  1.00 20.00     0.001 A 
HETATM    4  C4  UNL     1     -33.901  15.910  -5.747  1.00 20.00     0.018 A 
HETATM    5  C5  UNL     1     -34.520  13.669  -5.094  1.00 20.00     0.018 A 
HETATM    6  C6  UNL     1     -34.573  14.718  -6.012  1.00 20.00    -0.000 A 
ENDROOT
BRANCH   6   7
HETATM    7  S8  UNL     1     -35.498  14.534  -7.524  1.00 20.00    -0.134 SA
HETATM    8  C7  UNL     1     -37.068  15.260  -7.007  1.00 20.00     0.095 C 
ENDBRANCH   6   7
TORSDOF 1
ENDMDL
MODEL 8
REMARK VINA RESULT:      -3.6     12.189     13.774
REMARK  1 active torsions:
REMARK  status: ('A' for Active; 'I' for Inactive)
REMARK    1  A    between atoms: C6_6  and  S8_8 
ROOT
HETATM    1  C1  UNL     1     -33.024  15.028  -3.653  1.00 20.00     0.000 A 
HETATM    2  C2  UNL     1     -33.652  13.808  -3.905  1.00 20.00     0.001 A 
HETATM    3  C3  UNL     1     -33.168  16.085  -4.552  1.00 20.00     0.001 A 
HETATM    4  C4  UNL     1     -34.424  13.646  -5.055  1.00 20.00     0.018 A 
HETATM    5  C5  UNL     1     -33.940  15.922  -5.702  1.00 20.00     0.018 A 
HETATM    6  C6  UNL     1     -34.568  14.702  -5.954  1.00 20.00    -0.000 A 
ENDROOT
BRANCH   6   7
HETATM    7  S8  UNL     1     -35.554  14.494  -7.423  1.00 20.00    -0.134 SA
HETATM    8  C7  UNL     1     -37.030  15.410  -6.929  1.00 20.00     0.095 C 
ENDBRANCH   6   7
TORSDOF 1
ENDMDL
MODEL 9
REMARK VINA RESULT:      -3.5     12.283     13.734
REMARK  1 active torsions:
REMARK  status: ('A' for Active; 'I' for Inactive)
REMARK    1  A    between atoms: C6_6  and  S8_8 
ROOT
HETATM    1  C1  UNL     1     -33.513  13.730  -3.804  1.00 20.00     0.000 A 
HETATM    2  C2  UNL     1     -32.946  14.995  -3.655  1.00 20.00     0.001 A 
HETATM    3  C3  UNL     1     -34.383  13.476  -4.865  1.00 20.00     0.001 A 
HETATM    4  C4  UNL     1     -33.248  16.007  -4.567  1.00 20.00     0.018 A 
HETATM    5  C5  UNL     1     -34.685  14.488  -5.777  1.00 20.00     0.018 A 
HETATM    6  C6  UNL     1     -34.118  15.754  -5.627  1.00 20.00    -0.000 A 
ENDROOT
BRANCH   6   7
HETATM    7  S8  UNL     1     -34.504  17.047  -6.791  1.00 20.00    -0.134 SA
HETATM    8  C7  UNL     1     -33.689  18.438  -5.978  1.00 20.00     0.095 C 
ENDBRANCH   6   7
TORSDOF 1
ENDMDL
