MODEL 1
REMARK VINA RESULT:      -3.5      0.000      0.000
REMARK  1 active torsions:
REMARK  status: ('A' for Active; 'I' for Inactive)
REMARK    1  A    between atoms: C4_4  and  S6_6 
ROOT
HETATM    1  C1  UNL     1     -35.347   4.601   4.955  1.00 20.00     0.009 A 
HETATM    2  C2  UNL     1     -34.580   5.083   3.854  1.00 20.00     0.026 A 
HETATM    3  C3  UNL     1     -34.994   5.213   6.138  1.00 20.00     0.051 A 
HETATM    4  C4  UNL     1     -33.671   6.043   4.238  1.00 20.00     0.038 A 
HETATM    5  S5  UNL     1     -33.744   6.363   5.919  1.00 20.00    -0.095 SA
ENDROOT
BRANCH   4   6
HETATM    6  S6  UNL     1     -32.548   6.880   3.182  1.00 20.00    -0.136 SA
HETATM    7  H10 UNL     1     -32.994   6.408   2.003  1.00 20.00     0.107 HD
ENDBRANCH   4   6
TORSDOF 1
ENDMDL
MODEL 2
REMARK VINA RESULT:      -3.1      1.118      2.295
REMARK  1 active torsions:
REMARK  status: ('A' for Active; 'I' for Inactive)
REMARK    1  A    between atoms: C4_4  and  S6_6 
ROOT
HETATM    1  C1  UNL     1     -35.213   4.389   4.910  1.00 20.00     0.009 A 
HETATM    2  C2  UNL     1     -34.819   5.116   6.070  1.00 20.00     0.026 A 
HETATM    3  C3  UNL     1     -34.756   4.978   3.751  1.00 20.00     0.051 A 
HETATM    4  C4  UNL     1     -34.077   6.232   5.755  1.00 20.00     0.038 A 
HETATM    5  S5  UNL     1     -33.856   6.400   4.064  1.00 20.00    -0.095 SA
ENDROOT
BRANCH   4   6
HETATM    6  S6  UNL     1     -33.406   7.382   6.897  1.00 20.00    -0.136 SA
HETATM    7  H10 UNL     1     -33.303   6.567   7.963  1.00 20.00     0.107 HD
ENDBRANCH   4   6
TORSDOF 1
ENDMDL
MODEL 3
REMARK VINA RESULT:      -2.9      9.612     10.080
REMARK  1 active torsions:
REMARK  status: ('A' for Active; 'I' for Inactive)
REMARK    1  A    between atoms: C4_4  and  S6_6 
ROOT
HETATM    1  C1  UNL     1     -40.665   5.920  -0.356  1.00 20.00     0.009 A 
HETATM    2  C2  UNL     1     -41.118   7.010  -1.154  1.00 20.00     0.026 A 
HETATM    3  C3  UNL     1     -41.112   4.708  -0.833  1.00 20.00     0.051 A 
HETATM    4  C4  UNL     1     -41.894   6.589  -2.211  1.00 20.00     0.038 A 
HETATM    5  S5  UNL     1     -42.073   4.886  -2.239  1.00 20.00    -0.095 SA
ENDROOT
BRANCH   4   6
HETATM    6  S6  UNL     1     -42.637   7.621  -3.420  1.00 20.00    -0.136 SA
HETATM    7  H10 UNL     1     -43.702   6.851  -3.711  1.00 20.00     0.107 HD
ENDBRANCH   4   6
TORSDOF 1
ENDMDL
MODEL 4
REMARK VINA RESULT:      -2.9      1.758      2.176
REMARK  1 active torsions:
REMARK  status: ('A' for Active; 'I' for Inactive)
REMARK    1  A    between atoms: C4_4  and  S6_6 
ROOT
HETATM    1  C1  UNL     1     -34.714   5.336   3.535  1.00 20.00     0.009 A 
HETATM    2  C2  UNL     1     -34.056   6.399   4.218  1.00 20.00     0.026 A 
HETATM    3  C3  UNL     1     -35.216   4.394   4.406  1.00 20.00     0.051 A 
HETATM    4  C4  UNL     1     -34.080   6.229   5.584  1.00 20.00     0.038 A 
HETATM    5  S5  UNL     1     -34.894   4.793   6.039  1.00 20.00    -0.095 SA
ENDROOT
BRANCH   4   6
HETATM    6  S6  UNL     1     -33.382   7.316   6.772  1.00 20.00    -0.136 SA
HETATM    7  H10 UNL     1     -32.723   8.133   5.930  1.00 20.00     0.107 HD
ENDBRANCH   4   6
TORSDOF 1
ENDMDL
MODEL 5
REMARK VINA RESULT:      -2.9      9.529     10.051
REMARK  1 active torsions:
REMARK  status: ('A' for Active; 'I' for Inactive)
REMARK    1  A    between atoms: C4_4  and  S6_6 
ROOT
HETATM    1  C1  UNL     1     -40.731   6.250  -0.386  1.00 20.00     0.009 A 
HETATM    2  C2  UNL     1     -40.879   4.895  -0.801  1.00 20.00     0.026 A 
HETATM    3  C3  UNL     1     -41.435   7.118  -1.192  1.00 20.00     0.051 A 
HETATM    4  C4  UNL     1     -41.690   4.779  -1.907  1.00 20.00     0.038 A 
HETATM    5  S5  UNL     1     -42.271   6.299  -2.442  1.00 20.00    -0.095 SA
ENDROOT
BRANCH   4   6
HETATM    6  S6  UNL     1     -42.120   3.284  -2.719  1.00 20.00    -0.136 SA
HETATM    7  H10 UNL     1     -43.123   2.899  -1.909  1.00 20.00     0.107 HD
ENDBRANCH   4   6
TORSDOF 1
ENDMDL
MODEL 6
REMARK VINA RESULT:      -2.8     12.522     13.372
REMARK  1 active torsions:
REMARK  status: ('A' for Active; 'I' for Inactive)
REMARK    1  A    between atoms: C4_4  and  S6_6 
ROOT
HETATM    1  C1  UNL     1     -33.628  13.657  -3.759  1.00 20.00     0.009 A 
HETATM    2  C2  UNL     1     -33.263  15.034  -3.794  1.00 20.00     0.026 A 
HETATM    3  C3  UNL     1     -34.444  13.311  -4.814  1.00 20.00     0.051 A 
HETATM    4  C4  UNL     1     -33.813  15.688  -4.874  1.00 20.00     0.038 A 
HETATM    5  S5  UNL     1     -34.765  14.643  -5.841  1.00 20.00    -0.095 SA
ENDROOT
BRANCH   4   6
HETATM    6  S6  UNL     1     -33.601  17.383  -5.270  1.00 20.00    -0.136 SA
HETATM    7  H10 UNL     1     -32.542  17.642  -4.482  1.00 20.00     0.107 HD
ENDBRANCH   4   6
TORSDOF 1
ENDMDL
MODEL 7
REMARK VINA RESULT:      -2.8     12.652     13.351
REMARK  1 active torsions:
REMARK  status: ('A' for Active; 'I' for Inactive)
REMARK    1  A    between atoms: C4_4  and  S6_6 
ROOT
HETATM    1  C1  UNL     1     -33.590  13.801  -3.723  1.00 20.00     0.009 A 
HETATM    2  C2  UNL     1     -34.383  13.474  -4.861  1.00 20.00     0.026 A 
HETATM    3  C3  UNL     1     -33.176  15.115  -3.740  1.00 20.00     0.051 A 
HETATM    4  C4  UNL     1     -34.545  14.550  -5.704  1.00 20.00     0.038 A 
HETATM    5  S5  UNL     1     -33.744  15.949  -5.124  1.00 20.00    -0.095 SA
ENDROOT
BRANCH   4   6
HETATM    6  S6  UNL     1     -35.452  14.556  -7.206  1.00 20.00    -0.136 SA
HETATM    7  H10 UNL     1     -35.347  15.866  -7.497  1.00 20.00     0.107 HD
ENDBRANCH   4   6
TORSDOF 1
ENDMDL
MODEL 8
REMARK VINA RESULT:      -2.8     12.289     12.436
REMARK  1 active torsions:
REMARK  status: ('A' for Active; 'I' for Inactive)
REMARK    1  A    between atoms: C4_4  and  S6_6 
ROOT
HETATM    1  C1  UNL     1     -34.064  13.474  -4.431  1.00 20.00     0.009 A 
HETATM    2  C2  UNL     1     -33.532  14.429  -3.517  1.00 20.00     0.026 A 
HETATM    3  C3  UNL     1     -35.424  13.618  -4.598  1.00 20.00     0.051 A 
HETATM    4  C4  UNL     1     -34.506  15.266  -3.018  1.00 20.00     0.038 A 
HETATM    5  S5  UNL     1     -36.054  14.900  -3.654  1.00 20.00    -0.095 SA
ENDROOT
BRANCH   4   6
HETATM    6  S6  UNL     1     -34.257  16.570  -1.872  1.00 20.00    -0.136 SA
HETATM    7  H10 UNL     1     -32.915  16.514  -1.795  1.00 20.00     0.107 HD
ENDBRANCH   4   6
TORSDOF 1
ENDMDL
MODEL 9
REMARK VINA RESULT:      -2.8     12.260     12.650
REMARK  1 active torsions:
REMARK  status: ('A' for Active; 'I' for Inactive)
REMARK    1  A    between atoms: C4_4  and  S6_6 
ROOT
HETATM    1  C1  UNL     1     -33.375  13.765  -3.818  1.00 20.00     0.009 A 
HETATM    2  C2  UNL     1     -34.776  13.533  -3.930  1.00 20.00     0.026 A 
HETATM    3  C3  UNL     1     -33.083  15.102  -3.655  1.00 20.00     0.051 A 
HETATM    4  C4  UNL     1     -35.502  14.700  -3.848  1.00 20.00     0.038 A 
HETATM    5  S5  UNL     1     -34.495  16.070  -3.637  1.00 20.00    -0.095 SA
ENDROOT
BRANCH   4   6
HETATM    6  S6  UNL     1     -37.249  14.837  -3.939  1.00 20.00    -0.136 SA
HETATM    7  H10 UNL     1     -37.339  16.177  -4.031  1.00 20.00     0.107 HD
ENDBRANCH   4   6
TORSDOF 1
ENDMDL
