MODEL 1
REMARK VINA RESULT:      -5.7      0.000      0.000
REMARK  0 active torsions:
REMARK  status: ('A' for Active; 'I' for Inactive)
ROOT
HETATM    1  C1  UNL     1     -35.160   4.864   5.980  1.00 20.00     0.000 A 
HETATM    2  C2  UNL     1     -35.240   4.539   4.626  1.00 20.00     0.001 A 
HETATM    3  C3  UNL     1     -34.298   5.874   6.406  1.00 20.00     0.001 A 
HETATM    4  C4  UNL     1     -34.457   5.224   3.697  1.00 20.00     0.007 A 
HETATM    5  C5  UNL     1     -33.514   6.559   5.477  1.00 20.00     0.007 A 
HETATM    6  C6  UNL     1     -33.594   6.234   4.122  1.00 20.00    -0.062 A 
HETATM    7  C7  UNL     1     -32.756   6.967   3.130  1.00 20.00     0.048 C 
ENDROOT
TORSDOF 0
ENDMDL
MODEL 2
REMARK VINA RESULT:      -5.7      0.003      1.826
REMARK  0 active torsions:
REMARK  status: ('A' for Active; 'I' for Inactive)
ROOT
HETATM    1  C1  UNL     1     -35.160   4.865   5.978  1.00 20.00     0.000 A 
HETATM    2  C2  UNL     1     -34.298   5.875   6.406  1.00 20.00     0.001 A 
HETATM    3  C3  UNL     1     -35.239   4.540   4.625  1.00 20.00     0.001 A 
HETATM    4  C4  UNL     1     -33.513   6.560   5.477  1.00 20.00     0.007 A 
HETATM    5  C5  UNL     1     -34.455   5.226   3.697  1.00 20.00     0.007 A 
HETATM    6  C6  UNL     1     -33.591   6.236   4.123  1.00 20.00    -0.062 A 
HETATM    7  C7  UNL     1     -32.754   6.968   3.130  1.00 20.00     0.048 C 
ENDROOT
TORSDOF 0
ENDMDL
MODEL 3
REMARK VINA RESULT:      -5.5      0.918      2.144
REMARK  0 active torsions:
REMARK  status: ('A' for Active; 'I' for Inactive)
ROOT
HETATM    1  C1  UNL     1     -35.176   4.320   4.416  1.00 20.00     0.000 A 
HETATM    2  C2  UNL     1     -34.601   5.425   3.789  1.00 20.00     0.001 A 
HETATM    3  C3  UNL     1     -35.157   4.218   5.807  1.00 20.00     0.001 A 
HETATM    4  C4  UNL     1     -34.006   6.429   4.554  1.00 20.00     0.007 A 
HETATM    5  C5  UNL     1     -34.560   5.221   6.571  1.00 20.00     0.007 A 
HETATM    6  C6  UNL     1     -33.986   6.328   5.945  1.00 20.00    -0.062 A 
HETATM    7  C7  UNL     1     -33.349   7.399   6.763  1.00 20.00     0.048 C 
ENDROOT
TORSDOF 0
ENDMDL
MODEL 4
REMARK VINA RESULT:      -5.5      0.922      2.332
REMARK  0 active torsions:
REMARK  status: ('A' for Active; 'I' for Inactive)
ROOT
HETATM    1  C1  UNL     1     -35.176   4.321   4.410  1.00 20.00     0.000 A 
HETATM    2  C2  UNL     1     -35.158   4.212   5.800  1.00 20.00     0.001 A 
HETATM    3  C3  UNL     1     -34.602   5.430   3.789  1.00 20.00     0.001 A 
HETATM    4  C4  UNL     1     -34.565   5.213   6.571  1.00 20.00     0.007 A 
HETATM    5  C5  UNL     1     -34.011   6.432   4.559  1.00 20.00     0.007 A 
HETATM    6  C6  UNL     1     -33.991   6.323   5.950  1.00 20.00    -0.062 A 
HETATM    7  C7  UNL     1     -33.358   7.394   6.772  1.00 20.00     0.048 C 
ENDROOT
TORSDOF 0
ENDMDL
MODEL 5
REMARK VINA RESULT:      -4.6      0.793      2.730
REMARK  0 active torsions:
REMARK  status: ('A' for Active; 'I' for Inactive)
ROOT
HETATM    1  C1  UNL     1     -33.300   6.394   3.078  1.00 20.00     0.000 A 
HETATM    2  C2  UNL     1     -34.293   5.429   2.911  1.00 20.00     0.001 A 
HETATM    3  C3  UNL     1     -32.939   6.810   4.358  1.00 20.00     0.001 A 
HETATM    4  C4  UNL     1     -34.925   4.879   4.027  1.00 20.00     0.007 A 
HETATM    5  C5  UNL     1     -33.571   6.261   5.474  1.00 20.00     0.007 A 
HETATM    6  C6  UNL     1     -34.564   5.294   5.309  1.00 20.00    -0.062 A 
HETATM    7  C7  UNL     1     -35.238   4.708   6.502  1.00 20.00     0.048 C 
ENDROOT
TORSDOF 0
ENDMDL
MODEL 6
REMARK VINA RESULT:      -4.6      0.788      3.275
REMARK  0 active torsions:
REMARK  status: ('A' for Active; 'I' for Inactive)
ROOT
HETATM    1  C1  UNL     1     -33.303   6.403   3.093  1.00 20.00     0.000 A 
HETATM    2  C2  UNL     1     -32.953   6.808   4.382  1.00 20.00     0.001 A 
HETATM    3  C3  UNL     1     -34.283   5.429   2.909  1.00 20.00     0.001 A 
HETATM    4  C4  UNL     1     -33.585   6.237   5.487  1.00 20.00     0.007 A 
HETATM    5  C5  UNL     1     -34.914   4.858   4.014  1.00 20.00     0.007 A 
HETATM    6  C6  UNL     1     -34.566   5.262   5.304  1.00 20.00    -0.062 A 
HETATM    7  C7  UNL     1     -35.242   4.651   6.484  1.00 20.00     0.048 C 
ENDROOT
TORSDOF 0
ENDMDL
MODEL 7
REMARK VINA RESULT:      -4.0      8.950     10.083
REMARK  0 active torsions:
REMARK  status: ('A' for Active; 'I' for Inactive)
ROOT
HETATM    1  C1  UNL     1     -41.189   7.202  -0.842  1.00 20.00     0.000 A 
HETATM    2  C2  UNL     1     -40.648   6.056  -0.258  1.00 20.00     0.001 A 
HETATM    3  C3  UNL     1     -41.967   7.098  -1.994  1.00 20.00     0.001 A 
HETATM    4  C4  UNL     1     -40.886   4.805  -0.829  1.00 20.00     0.007 A 
HETATM    5  C5  UNL     1     -42.204   5.848  -2.565  1.00 20.00     0.007 A 
HETATM    6  C6  UNL     1     -41.664   4.701  -1.982  1.00 20.00    -0.062 A 
HETATM    7  C7  UNL     1     -41.918   3.365  -2.593  1.00 20.00     0.048 C 
ENDROOT
TORSDOF 0
ENDMDL
MODEL 8
REMARK VINA RESULT:      -4.0      8.969     10.026
REMARK  0 active torsions:
REMARK  status: ('A' for Active; 'I' for Inactive)
ROOT
HETATM    1  C1  UNL     1     -41.185   7.126  -0.875  1.00 20.00     0.000 A 
HETATM    2  C2  UNL     1     -41.982   7.024  -2.016  1.00 20.00     0.001 A 
HETATM    3  C3  UNL     1     -40.632   5.980  -0.305  1.00 20.00     0.001 A 
HETATM    4  C4  UNL     1     -42.226   5.774  -2.586  1.00 20.00     0.007 A 
HETATM    5  C5  UNL     1     -40.877   4.730  -0.874  1.00 20.00     0.007 A 
HETATM    6  C6  UNL     1     -41.673   4.627  -2.015  1.00 20.00    -0.062 A 
HETATM    7  C7  UNL     1     -41.934   3.290  -2.622  1.00 20.00     0.048 C 
ENDROOT
TORSDOF 0
ENDMDL
MODEL 9
REMARK VINA RESULT:      -3.8      9.152     10.158
REMARK  0 active torsions:
REMARK  status: ('A' for Active; 'I' for Inactive)
ROOT
HETATM    1  C1  UNL     1     -40.901   4.680  -0.763  1.00 20.00     0.000 A 
HETATM    2  C2  UNL     1     -40.641   6.001  -0.398  1.00 20.00     0.001 A 
HETATM    3  C3  UNL     1     -41.707   4.406  -1.867  1.00 20.00     0.001 A 
HETATM    4  C4  UNL     1     -41.188   7.049  -1.139  1.00 20.00     0.007 A 
HETATM    5  C5  UNL     1     -42.255   5.454  -2.606  1.00 20.00     0.007 A 
HETATM    6  C6  UNL     1     -41.995   6.776  -2.243  1.00 20.00    -0.062 A 
HETATM    7  C7  UNL     1     -42.582   7.895  -3.035  1.00 20.00     0.048 C 
ENDROOT
TORSDOF 0
ENDMDL
