REMARK  0 active torsions:
REMARK  status: ('A' for Active; 'I' for Inactive)
ROOT
HETATM    1  C1  UNL     1     -33.283   5.819   1.663  1.00 20.00     0.136 A 
HETATM    2  C2  UNL     1     -32.578   6.939   2.033  1.00 20.00     0.136 A 
HETATM    3  C3  UNL     1     -34.081   5.602   3.809  1.00 20.00     0.059 A 
HETATM    4  C4  UNL     1     -33.377   6.742   4.181  1.00 20.00     0.059 A 
HETATM    5  C5  UNL     1     -34.970   4.869   4.774  1.00 20.00     0.061 C 
HETATM    6  C6  UNL     1     -33.374   7.245   5.597  1.00 20.00     0.061 C 
HETATM    7  C7  UNL     1     -34.664   5.193   6.235  1.00 20.00     0.006 C 
HETATM    8  C8  UNL     1     -34.532   6.699   6.431  1.00 20.00     0.006 C 
HETATM    9  N9  UNL     1     -34.045   5.137   2.539  1.00 20.00    -0.262 NA
HETATM   10  N10 UNL     1     -32.610   7.415   3.292  1.00 20.00    -0.262 NA
ENDROOT
TORSDOF 0
