REMARK  2 active torsions:
REMARK  status: ('A' for Active; 'I' for Inactive)
REMARK    1  A    between atoms: C3_3  and  O11_11 
REMARK    2  A    between atoms: C8_8  and  O11_11 
ROOT
HETATM    1  C1  UNL     1     -35.311   5.906   4.408  1.00 20.00    -0.025 C 
HETATM    2  C2  UNL     1     -34.920   7.071   4.946  1.00 20.00    -0.023 C 
HETATM    3  C4  UNL     1     -33.278   5.523   5.445  1.00 20.00     0.019 C 
HETATM    4  C5  UNL     1     -33.254   5.709   3.062  1.00 20.00     0.042 C 
HETATM    5  C6  UNL     1     -34.069   5.070   4.211  1.00 20.00     0.011 C 
HETATM    6  C7  UNL     1     -33.417   7.011   5.104  1.00 20.00     0.038 C 
HETATM    7  C8  UNL     1     -32.749   7.029   3.709  1.00 20.00     0.140 C 
ENDROOT
BRANCH   7   8
HETATM    8  O11 UNL     1     -33.116   8.163   2.946  1.00 20.00    -0.316 OA
BRANCH   8   9
HETATM    9  C3  UNL     1     -32.621   8.216   1.669  1.00 20.00     0.255 C 
HETATM   10  C9  UNL     1     -33.090   9.464   0.985  1.00 20.00     0.126 C 
HETATM   11  O10 UNL     1     -31.900   7.377   1.146  1.00 20.00    -0.266 OA
ENDBRANCH   8   9
ENDBRANCH   7   8
TORSDOF 2
