REMARK  2 active torsions:
REMARK  status: ('A' for Active; 'I' for Inactive)
REMARK    1  A    between atoms: C3_3  and  C5_5 
REMARK    2  A    between atoms: C5_5  and  C6_6 
ROOT
HETATM    1  C1  UNL     1     -34.519   6.048   5.012  1.00 20.00     0.179 C 
HETATM    2  C2  UNL     1     -34.903   4.677   4.483  1.00 20.00     0.103 C 
HETATM    3  C3  UNL     1     -33.076   6.019   3.201  1.00 20.00     0.182 C 
HETATM    4  O7  UNL     1     -34.028   6.823   3.913  1.00 20.00    -0.375 OA
HETATM    5  S8  UNL     1     -33.530   4.274   3.390  1.00 20.00    -0.135 SA
ENDROOT
BRANCH   3   6
HETATM    6  C5  UNL     1     -33.078   6.436   1.742  1.00 20.00     0.042 C 
BRANCH   6   7
HETATM    7  C6  UNL     1     -32.727   7.914   1.579  1.00 20.00    -0.001 C 
HETATM    8  C4  UNL     1     -32.701   8.325   0.116  1.00 20.00     0.005 C 
ENDBRANCH   6   7
ENDBRANCH   3   6
TORSDOF 2
