REMARK  0 active torsions:
REMARK  status: ('A' for Active; 'I' for Inactive)
ROOT
HETATM    1  C1  UNL     1     -34.891   6.406   5.906  1.00 20.00    -0.030 C 
HETATM    2  C2  UNL     1     -35.089   5.067   5.876  1.00 20.00    -0.029 C 
HETATM    3  C3  UNL     1     -32.887   6.104   2.613  1.00 20.00     0.224 C 
HETATM    4  C4  UNL     1     -34.131   7.173   4.824  1.00 20.00     0.043 C 
HETATM    5  C5  UNL     1     -34.635   4.171   4.724  1.00 20.00     0.053 C 
HETATM    6  C6  UNL     1     -33.336   6.135   4.071  1.00 20.00     0.104 C 
HETATM    7  C7  UNL     1     -34.382   5.109   3.572  1.00 20.00     0.101 C 
HETATM    8  N8  UNL     1     -33.435   4.841   2.503  1.00 20.00    -0.355 N 
HETATM    9  O9  UNL     1     -32.262   6.805   1.854  1.00 20.00    -0.273 OA
HETATM   10  H18 UNL     1     -33.514   4.288   1.660  1.00 20.00     0.162 HD
ENDROOT
TORSDOF 0
