REMARK  0 active torsions:
REMARK  status: ('A' for Active; 'I' for Inactive)
ROOT
HETATM    1  C1  UNL     1     -34.044   5.259   4.343  1.00 20.00     0.056 A 
HETATM    2  C2  UNL     1     -33.951   4.055   3.678  1.00 20.00     0.077 A 
HETATM    3  C3  UNL     1     -33.143   5.981   2.478  1.00 20.00     0.072 A 
HETATM    4  C4  UNL     1     -34.584   5.475   5.702  1.00 20.00     0.072 C 
HETATM    5  C5  UNL     1     -32.571   6.889   1.461  1.00 20.00     0.079 C 
HETATM    6  N6  UNL     1     -33.580   6.365   3.657  1.00 20.00    -0.249 NA
HETATM    7  S7  UNL     1     -33.260   4.305   2.128  1.00 20.00    -0.066 SA
HETATM    8 BR8  UNL     1     -34.494   2.362   4.334  1.00 20.00    -0.041 Br
ENDROOT
TORSDOF 0
