REMARK  2 active torsions:
REMARK  status: ('A' for Active; 'I' for Inactive)
REMARK    1  A    between atoms: C3_3  and  C5_5 
REMARK    2  A    between atoms: C5_5  and  C6_6 
ROOT
HETATM    1  C1  UNL     1     -33.530   7.245   5.968  1.00 20.00     0.179 C 
HETATM    2  C2  UNL     1     -34.332   5.973   6.178  1.00 20.00     0.103 C 
HETATM    3  C3  UNL     1     -33.961   6.799   3.737  1.00 20.00     0.182 C 
HETATM    4  O7  UNL     1     -32.937   7.181   4.665  1.00 20.00    -0.375 OA
HETATM    5  S8  UNL     1     -35.178   5.770   4.602  1.00 20.00    -0.135 SA
ENDROOT
BRANCH   3   6
HETATM    6  C5  UNL     1     -33.321   6.047   2.584  1.00 20.00     0.042 C 
BRANCH   6   7
HETATM    7  C6  UNL     1     -32.271   6.899   1.871  1.00 20.00    -0.001 C 
HETATM    8  C4  UNL     1     -32.882   8.157   1.275  1.00 20.00     0.005 C 
ENDBRANCH   6   7
ENDBRANCH   3   6
TORSDOF 2
