REMARK  1 active torsions:
REMARK  status: ('A' for Active; 'I' for Inactive)
REMARK    1  A    between atoms: C4_4  and  C5_5 
ROOT
HETATM    1  C1  UNL     1     -34.698   6.333   6.386  1.00 20.00     0.029 C 
HETATM    2  C2  UNL     1     -33.484   7.088   5.908  1.00 20.00     0.035 C 
HETATM    3  C3  UNL     1     -34.769   5.193   5.392  1.00 20.00     0.168 C 
HETATM    4  C4  UNL     1     -33.625   6.966   4.401  1.00 20.00     0.131 C 
HETATM    5  O6  UNL     1     -34.220   5.680   4.158  1.00 20.00    -0.385 OA
ENDROOT
BRANCH   4   6
HETATM    6  C5  UNL     1     -32.307   7.072   3.659  1.00 20.00     0.117 C 
HETATM    7 BR7  UNL     1     -32.637   7.485   1.790  1.00 20.00    -0.094 Br
ENDBRANCH   4   6
TORSDOF 1
