REMARK  1 active torsions:
REMARK  status: ('A' for Active; 'I' for Inactive)
REMARK    1  A    between atoms: C8_8  and  N9_9 
ROOT
HETATM    1  C1  UNL     1     -33.003   6.653   2.061  1.00 20.00     0.158 C 
HETATM    2  N9  UNL     1     -32.984   5.546   2.454  1.00 20.00    -0.270 NA
HETATM    3  S10 UNL     1     -33.025   8.143   1.500  1.00 20.00    -0.055 SA
ENDROOT
BRANCH   2   4
HETATM    4  C8  UNL     1     -33.076   5.407   3.909  1.00 20.00     0.118 C 
HETATM    5  C5  UNL     1     -33.850   4.107   4.270  1.00 20.00     0.036 C 
HETATM    6  C6  UNL     1     -35.076   4.646   5.043  1.00 20.00     0.010 C 
HETATM    7  C2  UNL     1     -34.582   5.274   6.326  1.00 20.00    -0.026 C 
HETATM    8  C4  UNL     1     -35.383   5.923   4.258  1.00 20.00     0.019 C 
HETATM    9  C3  UNL     1     -33.931   6.399   5.992  1.00 20.00    -0.024 C 
HETATM   10  C7  UNL     1     -33.986   6.516   4.486  1.00 20.00     0.033 C 
ENDBRANCH   2   4
TORSDOF 1
