REMARK  0 active torsions:
REMARK  status: ('A' for Active; 'I' for Inactive)
ROOT
HETATM    1  C1  UNL     1     -33.155   6.844   2.378  1.00 20.00     0.075 C 
HETATM    2  C2  UNL     1     -35.177   5.442   6.216  1.00 20.00     0.084 C 
HETATM    3  C3  UNL     1     -34.838   4.363   5.199  1.00 20.00     0.085 C 
HETATM    4  C4  UNL     1     -33.771   7.295   4.712  1.00 20.00     0.104 C 
HETATM    5  C5  UNL     1     -33.422   6.217   3.684  1.00 20.00     0.163 C 
HETATM    6  N6  UNL     1     -32.944   7.338   1.349  1.00 20.00    -0.196 NA
HETATM    7  S7  UNL     1     -33.845   6.661   6.416  1.00 20.00    -0.166 SA
HETATM    8  S8  UNL     1     -34.773   4.997   3.497  1.00 20.00    -0.148 SA
ENDROOT
TORSDOF 0
