REMARK  0 active torsions:
REMARK  status: ('A' for Active; 'I' for Inactive)
ROOT
HETATM    1  C1  UNL     1     -34.496   4.810   4.818  1.00 20.00     0.038 A 
HETATM    2  C2  UNL     1     -33.581   4.912   2.595  1.00 20.00     0.058 A 
HETATM    3  C3  UNL     1     -34.301   6.179   4.903  1.00 20.00     0.119 A 
HETATM    4  C4  UNL     1     -34.127   4.172   3.639  1.00 20.00     0.015 A 
HETATM    5  C5  UNL     1     -33.427   6.276   2.780  1.00 20.00     0.104 A 
HETATM    6  N6  UNL     1     -33.774   6.931   3.910  1.00 20.00    -0.254 NA
HETATM    7 BR7  UNL     1     -34.367   2.307   3.456  1.00 20.00    -0.051 Br
HETATM    8 BR8  UNL     1     -32.685   7.307   1.368  1.00 20.00    -0.029 Br
ENDROOT
TORSDOF 0
