REMARK  0 active torsions:
REMARK  status: ('A' for Active; 'I' for Inactive)
ROOT
HETATM    1  C1  UNL     1     -34.747   4.935   6.249  1.00 20.00     0.000 C 
HETATM    2  C2  UNL     1     -34.763   6.384   6.256  1.00 20.00     0.017 C 
HETATM    3  C3  UNL     1     -34.626   4.255   5.094  1.00 20.00     0.010 C 
HETATM    4  C4  UNL     1     -34.435   7.046   5.135  1.00 20.00     0.092 C 
HETATM    5  C5  UNL     1     -32.838   5.866   2.117  1.00 20.00     0.072 C 
HETATM    6  C6  UNL     1     -33.310   6.839   2.919  1.00 20.00     0.015 C 
HETATM    7  C7  UNL     1     -34.561   4.979   3.778  1.00 20.00     0.178 C 
HETATM    8  C8  UNL     1     -32.951   8.281   2.766  1.00 20.00     0.069 C 
HETATM    9  N9  UNL     1     -34.140   6.390   3.951  1.00 20.00    -0.343 N 
HETATM   10  S10 UNL     1     -33.357   4.269   2.593  1.00 20.00    -0.110 SA
ENDROOT
TORSDOF 0
