REMARK  3 active torsions:
REMARK  status: ('A' for Active; 'I' for Inactive)
REMARK    1  A    between atoms: C2_2  and  C5_5 
REMARK    2  A    between atoms: C2_2  and  O10_10 
REMARK    3  A    between atoms: C7_7  and  O10_10 
ROOT
HETATM    1  C1  UNL     1     -33.247   8.572   1.053  1.00 20.00     0.065 C 
HETATM    2  C3  UNL     1     -32.076   7.271   2.877  1.00 20.00     0.036 A 
HETATM    3  C4  UNL     1     -32.939   7.304   1.646  1.00 20.00     0.107 A 
HETATM    4  C5  UNL     1     -33.544   6.966   2.988  1.00 20.00     0.104 A 
HETATM    5  N8  UNL     1     -33.497   9.598   0.572  1.00 20.00    -0.197 NA
ENDROOT
BRANCH   4   6
HETATM    6  C2  UNL     1     -33.973   5.587   3.252  1.00 20.00     0.264 C 
HETATM    7  O9  UNL     1     -33.414   4.597   2.799  1.00 20.00    -0.265 OA
BRANCH   6   8
HETATM    8  O10 UNL     1     -35.069   5.597   4.063  1.00 20.00    -0.322 OA
BRANCH   8   9
HETATM    9  C7  UNL     1     -34.914   4.921   5.315  1.00 20.00     0.174 C 
HETATM   10  C6  UNL     1     -34.404   5.905   6.347  1.00 20.00     0.034 C 
ENDBRANCH   8   9
ENDBRANCH   6   8
ENDBRANCH   4   6
TORSDOF 3
