REMARK  0 active torsions:
REMARK  status: ('A' for Active; 'I' for Inactive)
ROOT
HETATM    1  C1  UNL     1     -34.154   5.003   6.595  1.00 20.00    -0.028 C 
HETATM    2  C2  UNL     1     -34.648   4.389   5.515  1.00 20.00    -0.023 C 
HETATM    3  C3  UNL     1     -33.206   5.963   3.163  1.00 20.00     0.259 C 
HETATM    4  C4  UNL     1     -34.168   6.490   6.444  1.00 20.00     0.060 C 
HETATM    5  C5  UNL     1     -34.469   5.157   3.106  1.00 20.00     0.122 C 
HETATM    6  C6  UNL     1     -35.088   5.369   4.468  1.00 20.00     0.047 C 
HETATM    7  C7  UNL     1     -34.470   6.671   4.956  1.00 20.00     0.143 C 
HETATM    8  O8  UNL     1     -32.290   5.896   2.358  1.00 20.00    -0.265 OA
HETATM    9  O9  UNL     1     -33.239   6.817   4.227  1.00 20.00    -0.315 OA
ENDROOT
TORSDOF 0
