REMARK  0 active torsions:
REMARK  status: ('A' for Active; 'I' for Inactive)
ROOT
HETATM    1  C1  UNL     1     -32.485   7.730   2.434  1.00 20.00     0.006 C 
HETATM    2  C2  UNL     1     -31.757   7.646   3.777  1.00 20.00     0.006 C 
HETATM    3  C3  UNL     1     -33.882   7.165   2.672  1.00 20.00     0.068 C 
HETATM    4  C4  UNL     1     -32.747   7.022   4.758  1.00 20.00     0.068 C 
HETATM    5  C5  UNL     1     -34.151   4.036   3.657  1.00 20.00     0.197 C 
HETATM    6  C6  UNL     1     -34.956   4.604   4.794  1.00 20.00     0.197 C 
HETATM    7  C7  UNL     1     -33.711   6.243   3.872  1.00 20.00     0.164 C 
HETATM    8  O8  UNL     1     -33.115   5.000   3.474  1.00 20.00    -0.353 OA
HETATM    9  O9  UNL     1     -34.957   6.006   4.527  1.00 20.00    -0.353 OA
ENDROOT
TORSDOF 0
