REMARK  0 active torsions:
REMARK  status: ('A' for Active; 'I' for Inactive)
ROOT
HETATM    1  C1  UNL     1     -33.341   6.877   4.581  1.00 20.00     0.226 C 
HETATM    2  C2  UNL     1     -33.191   5.392   2.700  1.00 20.00     0.043 C 
HETATM    3  C3  UNL     1     -32.245   6.574   2.498  1.00 20.00     0.081 C 
HETATM    4  C4  UNL     1     -34.130   5.797   3.856  1.00 20.00     0.035 C 
HETATM    5  C5  UNL     1     -32.615   7.460   1.318  1.00 20.00     0.032 C 
HETATM    6  C6  UNL     1     -34.411   4.616   4.785  1.00 20.00     0.025 C 
HETATM    7  C7  UNL     1     -35.448   6.389   3.348  1.00 20.00     0.025 C 
HETATM    8  N8  UNL     1     -32.313   7.289   3.745  1.00 20.00    -0.356 N 
HETATM    9  O9  UNL     1     -33.596   7.319   5.692  1.00 20.00    -0.273 OA
HETATM   10  H22 UNL     1     -31.659   8.036   3.993  1.00 20.00     0.162 HD
ENDROOT
TORSDOF 0
