REMARK  0 active torsions:
REMARK  status: ('A' for Active; 'I' for Inactive)
ROOT
HETATM    1  C1  UNL     1     -32.693   7.058   3.080  1.00 20.00     0.089 A 
HETATM    2  C2  UNL     1     -33.949   5.016   2.452  1.00 20.00     0.089 A 
HETATM    3  C3  UNL     1     -33.401   6.526   4.129  1.00 20.00     0.109 A 
HETATM    4  C4  UNL     1     -34.095   5.344   3.777  1.00 20.00     0.109 A 
HETATM    5  C5  UNL     1     -34.472   6.514   6.157  1.00 20.00     0.202 C 
HETATM    6  C6  UNL     1     -34.555   4.992   5.997  1.00 20.00     0.202 C 
HETATM    7  O7  UNL     1     -33.410   7.074   5.366  1.00 20.00    -0.346 OA
HETATM    8  O8  UNL     1     -34.843   4.616   4.639  1.00 20.00    -0.346 OA
HETATM    9  S9  UNL     1     -32.918   6.133   1.648  1.00 20.00    -0.108 SA
ENDROOT
TORSDOF 0
