REMARK  2 active torsions:
REMARK  status: ('A' for Active; 'I' for Inactive)
REMARK    1  A    between atoms: C5_5  and  C6_6 
REMARK    2  A    between atoms: C6_6  and  N8_8 
ROOT
HETATM    1  C1  UNL     1     -33.802   6.487   5.669  1.00 20.00     0.135 A 
HETATM    2  C2  UNL     1     -32.926   7.088   4.796  1.00 20.00     0.111 A 
HETATM    3  C3  UNL     1     -34.155   5.565   3.783  1.00 20.00     0.209 A 
HETATM    4  N7  UNL     1     -34.564   5.540   5.032  1.00 20.00    -0.255 NA
HETATM    5  N8  UNL     1     -33.163   6.487   3.592  1.00 20.00    -0.350 N 
ENDROOT
BRANCH   5   6
HETATM    6  C6  UNL     1     -32.484   6.775   2.334  1.00 20.00     0.129 C 
BRANCH   6   7
HETATM    7  C5  UNL     1     -32.993   8.062   1.688  1.00 20.00     0.016 C 
HETATM    8  C4  UNL     1     -32.283   8.340   0.373  1.00 20.00     0.006 C 
ENDBRANCH   6   7
ENDBRANCH   5   6
TORSDOF 2
