REMARK  0 active torsions:
REMARK  status: ('A' for Active; 'I' for Inactive)
ROOT
HETATM    1  C1  UNL     1     -32.462   7.169   3.254  1.00 20.00    -0.007 C 
HETATM    2  C2  UNL     1     -33.129   6.624   2.229  1.00 20.00     0.008 C 
HETATM    3  C3  UNL     1     -32.952   7.116   4.668  1.00 20.00     0.035 C 
HETATM    4  C4  UNL     1     -34.438   5.909   2.366  1.00 20.00     0.058 C 
HETATM    5  C5  UNL     1     -34.662   5.961   6.120  1.00 20.00     0.172 C 
HETATM    6  C6  UNL     1     -34.284   4.383   4.440  1.00 20.00     0.172 C 
HETATM    7  C7  UNL     1     -34.430   6.705   4.812  1.00 20.00     0.019 C 
HETATM    8  C8  UNL     1     -34.859   5.644   3.811  1.00 20.00     0.021 C 
HETATM    9  O9  UNL     1     -34.346   4.580   5.864  1.00 20.00    -0.390 OA
HETATM   10 CL10 UNL     1     -32.493   6.719   0.623  1.00 20.00    -0.089 Cl
ENDROOT
TORSDOF 0
