REMARK  1 active torsions:
REMARK  status: ('A' for Active; 'I' for Inactive)
REMARK    1  A    between atoms: C3_3  and  O11_11 
ROOT
HETATM    1  C1  UNL     1     -33.791   6.908   5.313  1.00 20.00    -0.019 A 
HETATM    2  C2  UNL     1     -33.040   7.418   4.259  1.00 20.00    -0.029 A 
HETATM    3  C3  UNL     1     -34.402   5.665   5.186  1.00 20.00     0.096 A 
HETATM    4  C4  UNL     1     -32.932   6.652   3.110  1.00 20.00     0.037 A 
HETATM    5  C5  UNL     1     -34.233   4.978   3.995  1.00 20.00     0.064 A 
HETATM    6  C6  UNL     1     -33.944   7.688   6.578  1.00 20.00     0.052 C 
HETATM    7  C7  UNL     1     -32.373   8.748   4.365  1.00 20.00     0.051 C 
HETATM    8  C8  UNL     1     -32.138   7.147   1.945  1.00 20.00     0.071 C 
HETATM    9  C9  UNL     1     -34.867   3.639   3.806  1.00 20.00     0.073 C 
HETATM   10  N10 UNL     1     -33.511   5.440   2.950  1.00 20.00    -0.255 NA
ENDROOT
BRANCH   3  11
HETATM   11  O11 UNL     1     -35.141   5.142   6.199  1.00 20.00    -0.358 OA
HETATM   12  H24 UNL     1     -35.494   4.273   5.947  1.00 20.00     0.217 HD
ENDBRANCH   3  11
TORSDOF 1
