REMARK  1 active torsions:
REMARK  status: ('A' for Active; 'I' for Inactive)
REMARK    1  A    between atoms: C4_4  and  C6_6 
REMARK       I    between atoms: C4_4  and  N8_8 
ROOT
HETATM    1  C1  UNL     1     -34.803   5.688   6.036  1.00 20.00     0.135 A 
HETATM    2  C2  UNL     1     -34.540   5.127   4.809  1.00 20.00     0.120 A 
HETATM    3  C3  UNL     1     -33.527   7.062   5.043  1.00 20.00     0.216 A 
HETATM    4  C4  UNL     1     -33.153   5.922   2.884  1.00 20.00     0.228 C 
HETATM    5  N7  UNL     1     -34.170   6.891   6.175  1.00 20.00    -0.254 NA
HETATM    6  N8  UNL     1     -33.711   6.017   4.162  1.00 20.00    -0.286 N 
HETATM    7  O9  UNL     1     -33.393   4.938   2.199  1.00 20.00    -0.273 OA
ENDROOT
BRANCH   4   8
HETATM    8  C6  UNL     1     -32.285   7.070   2.468  1.00 20.00     0.099 C 
HETATM    9  C5  UNL     1     -33.107   8.115   1.747  1.00 20.00     0.014 C 
ENDBRANCH   4   8
TORSDOF 1
