REMARK  0 active torsions:
REMARK  status: ('A' for Active; 'I' for Inactive)
ROOT
HETATM    1  C1  UNL     1     -31.853   8.046   2.317  1.00 20.00    -0.024 C 
HETATM    2  C2  UNL     1     -32.977   7.870   1.596  1.00 20.00    -0.083 C 
HETATM    3  C3  UNL     1     -31.743   7.503   3.727  1.00 20.00     0.033 C 
HETATM    4  C4  UNL     1     -34.276   7.716   3.752  1.00 20.00     0.015 C 
HETATM    5  C5  UNL     1     -34.096   7.143   2.298  1.00 20.00     0.022 C 
HETATM    6  C6  UNL     1     -33.062   6.795   4.105  1.00 20.00    -0.002 C 
HETATM    7  C7  UNL     1     -33.640   5.793   3.013  1.00 20.00    -0.036 C 
HETATM    8  C8  UNL     1     -33.183   8.343   0.198  1.00 20.00     0.043 C 
HETATM    9  C9  UNL     1     -32.636   4.892   2.281  1.00 20.00     0.016 C 
HETATM   10  C10 UNL     1     -34.797   4.895   3.496  1.00 20.00     0.016 C 
ENDROOT
TORSDOF 0
