REMARK  0 active torsions:
REMARK  status: ('A' for Active; 'I' for Inactive)
ROOT
HETATM    1  C1  UNL     1     -33.335   4.593   2.852  1.00 20.00    -0.017 C 
HETATM    2  C2  UNL     1     -34.279   4.894   3.979  1.00 20.00     0.155 C 
HETATM    3  C3  UNL     1     -32.638   3.454   2.802  1.00 20.00     0.023 C 
HETATM    4  C4  UNL     1     -34.936   6.270   3.911  1.00 20.00     0.089 C 
HETATM    5  C5  UNL     1     -34.636   6.164   1.392  1.00 20.00     0.016 C 
HETATM    6  C6  UNL     1     -33.209   5.639   1.786  1.00 20.00     0.030 C 
HETATM    7  C7  UNL     1     -34.514   7.067   2.660  1.00 20.00     0.002 C 
HETATM    8  C8  UNL     1     -32.955   7.102   2.361  1.00 20.00    -0.036 C 
HETATM    9  C9  UNL     1     -32.525   8.137   1.303  1.00 20.00     0.016 C 
HETATM   10  C10 UNL     1     -32.014   7.247   3.563  1.00 20.00     0.016 C 
HETATM   11  O11 UNL     1     -34.504   4.104   4.889  1.00 20.00    -0.293 OA
ENDROOT
TORSDOF 0
