REMARK  1 active torsions:
REMARK  status: ('A' for Active; 'I' for Inactive)
REMARK    1  A    between atoms: C3_3  and  N6_6 
ROOT
HETATM    1  C1  UNL     1     -34.330   5.664   3.122  1.00 20.00     0.123 C 
HETATM    2  C2  UNL     1     -32.976   6.984   4.932  1.00 20.00     0.123 C 
HETATM    3  C3  UNL     1     -33.528   6.930   3.491  1.00 20.00     0.242 C 
HETATM    4  S7  UNL     1     -35.910   5.514   4.020  1.00 20.00    -0.084 SA
HETATM    5  S8  UNL     1     -34.276   7.107   6.206  1.00 20.00    -0.084 SA
HETATM    6  S9  UNL     1     -35.206   5.307   5.928  1.00 20.00    -0.025 SA
ENDROOT
BRANCH   3   7
HETATM    7  N6  UNL     1     -32.392   7.011   2.560  1.00 20.00     0.086 N 
HETATM    8  C4  UNL     1     -31.349   7.869   3.113  1.00 20.00     0.310 C 
HETATM    9  C5  UNL     1     -32.840   7.508   1.263  1.00 20.00     0.310 C 
ENDBRANCH   3   7
TORSDOF 1
