REMARK  1 active torsions:
REMARK  status: ('A' for Active; 'I' for Inactive)
REMARK    1  A    between atoms: C11_11  and  C12_12 
ROOT
HETATM    1  C1  UNL     1     -33.014   8.037   0.359  1.00 20.00     0.059 C 
HETATM    2  C12 UNL     1     -32.312   6.811   0.710  1.00 20.00     0.133 C 
HETATM    3  N13 UNL     1     -33.553   9.018   0.051  1.00 20.00    -0.197 NA
ENDROOT
BRANCH   2   4
HETATM    4  C11 UNL     1     -33.031   6.318   1.969  1.00 20.00    -0.027 C 
HETATM    5  C5  UNL     1     -34.525   6.057   1.666  1.00 20.00     0.015 C 
HETATM    6  C8  UNL     1     -35.251   5.561   2.929  1.00 20.00    -0.013 C 
HETATM    7  C2  UNL     1     -34.593   4.258   3.413  1.00 20.00     0.009 C 
HETATM    8  C3  UNL     1     -35.134   6.627   4.031  1.00 20.00     0.009 C 
HETATM    9  C9  UNL     1     -33.111   4.505   3.738  1.00 20.00    -0.013 C 
HETATM   10  C4  UNL     1     -33.004   5.576   4.836  1.00 20.00     0.009 C 
HETATM   11  C6  UNL     1     -32.391   5.003   2.472  1.00 20.00     0.015 C 
HETATM   12  C10 UNL     1     -33.654   6.886   4.359  1.00 20.00    -0.013 C 
HETATM   13  C7  UNL     1     -32.932   7.377   3.092  1.00 20.00     0.015 C 
ENDBRANCH   2   4
TORSDOF 1
