REMARK  1 active torsions:
REMARK  status: ('A' for Active; 'I' for Inactive)
REMARK    1  A    between atoms: C1_1  and  C10_10 
ROOT
HETATM    1  C2  UNL     1     -35.330   5.527   5.968  1.00 20.00     0.009 C 
HETATM    2  C3  UNL     1     -32.860   5.013   5.961  1.00 20.00     0.010 C 
HETATM    3  C4  UNL     1     -34.262   4.242   4.077  1.00 20.00     0.010 C 
HETATM    4  C5  UNL     1     -33.500   7.213   5.538  1.00 20.00     0.022 C 
HETATM    5  C6  UNL     1     -34.906   6.442   3.653  1.00 20.00     0.022 C 
HETATM    6  C7  UNL     1     -33.919   6.023   6.405  1.00 20.00    -0.013 C 
HETATM    7  C8  UNL     1     -35.382   5.219   4.441  1.00 20.00    -0.013 C 
HETATM    8  C9  UNL     1     -33.021   5.076   4.434  1.00 20.00     0.002 C 
HETATM    9  C10 UNL     1     -33.461   6.556   4.152  1.00 20.00     0.024 C 
ENDROOT
BRANCH   9  10
HETATM   10  C1  UNL     1     -32.561   7.277   3.203  1.00 20.00     0.132 C 
HETATM   11  C11 UNL     1     -32.453   6.713   1.812  1.00 20.00     0.091 C 
HETATM   12  O12 UNL     1     -31.939   8.283   3.541  1.00 20.00    -0.298 OA
ENDBRANCH   9  10
TORSDOF 1
