REMARK  2 active torsions:
REMARK  status: ('A' for Active; 'I' for Inactive)
REMARK    1  A    between atoms: C2_2  and  C4_4 
REMARK    2  A    between atoms: C4_4  and  O5_5 
ROOT
HETATM    1  C1  UNL     1     -32.612   4.924   2.557  1.00 20.00     0.052 A 
HETATM    2  C2  UNL     1     -34.067   5.239   2.777  1.00 20.00     0.051 A 
HETATM    3  C3  UNL     1     -33.017   6.293   3.047  1.00 20.00     0.119 A 
HETATM    4 CL6  UNL     1     -32.600   6.738   4.696  1.00 20.00    -0.101 Cl
HETATM    5 CL7  UNL     1     -32.899   7.638   1.913  1.00 20.00    -0.101 Cl
ENDROOT
BRANCH   2   6
HETATM    6  C4  UNL     1     -34.820   4.552   3.866  1.00 20.00     0.172 C 
BRANCH   6   7
HETATM    7  O5  UNL     1     -35.983   5.308   4.202  1.00 20.00    -0.400 OA
HETATM    8  H13 UNL     1     -36.431   4.820   4.910  1.00 20.00     0.209 HD
ENDBRANCH   6   7
ENDBRANCH   2   6
TORSDOF 2
