REMARK  2 active torsions:
REMARK  status: ('A' for Active; 'I' for Inactive)
REMARK    1  A    between atoms: C3_3  and  C10_10 
REMARK    2  A    between atoms: C5_5  and  C10_10 
ROOT
HETATM    1  C1  UNL     1     -33.832   7.348   5.476  1.00 20.00    -0.023 C 
HETATM    2  C2  UNL     1     -34.326   6.103   5.418  1.00 20.00    -0.079 C 
HETATM    3  C4  UNL     1     -33.824   8.009   4.138  1.00 20.00     0.033 C 
HETATM    4  C5  UNL     1     -33.989   6.822   3.169  1.00 20.00     0.007 C 
HETATM    5  C6  UNL     1     -34.741   5.733   4.006  1.00 20.00    -0.021 C 
HETATM    6  C7  UNL     1     -34.516   5.194   6.582  1.00 20.00     0.044 C 
HETATM    7  C8  UNL     1     -36.264   5.911   3.851  1.00 20.00     0.020 C 
HETATM    8  C9  UNL     1     -34.371   4.293   3.627  1.00 20.00     0.020 C 
ENDROOT
BRANCH   4   9
HETATM    9  C10 UNL     1     -32.614   6.395   2.636  1.00 20.00     0.075 C 
BRANCH   9  10
HETATM   10  C3  UNL     1     -32.111   7.304   1.546  1.00 20.00     0.231 C 
HETATM   11  O11 UNL     1     -32.701   8.294   1.129  1.00 20.00    -0.307 OA
ENDBRANCH   9  10
ENDBRANCH   4   9
TORSDOF 2
