REMARK  1 active torsions:
REMARK  status: ('A' for Active; 'I' for Inactive)
REMARK    1  A    between atoms: C5_5  and  C6_6 
ROOT
HETATM    1  C1  UNL     1     -32.912   4.976   2.161  1.00 20.00     0.014 C 
HETATM    2  C2  UNL     1     -33.487   5.147   3.201  1.00 20.00    -0.091 C 
HETATM    3  C4  UNL     1     -35.712   5.339   4.228  1.00 20.00     0.046 C 
HETATM    4  C6  UNL     1     -34.199   5.361   4.475  1.00 20.00     0.095 C 
HETATM    5 CL7  UNL     1     -33.793   3.979   5.548  1.00 20.00    -0.105 Cl
ENDROOT
BRANCH   4   6
HETATM    6  C5  UNL     1     -33.797   6.697   5.134  1.00 20.00     0.034 C 
HETATM    7  C3  UNL     1     -34.480   7.014   6.462  1.00 20.00     0.008 C 
ENDBRANCH   4   6
TORSDOF 1
