REMARK  0 active torsions:
REMARK  status: ('A' for Active; 'I' for Inactive)
ROOT
HETATM    1  C1  UNL     1     -34.563   5.566   4.894  1.00 20.00    -0.080 C 
HETATM    2  C2  UNL     1     -34.727   5.327   6.199  1.00 20.00     0.015 C 
HETATM    3  C3  UNL     1     -35.464   5.027   3.803  1.00 20.00     0.039 C 
HETATM    4  C4  UNL     1     -33.447   4.883   2.351  1.00 20.00     0.007 C 
HETATM    5  C5  UNL     1     -32.568   5.429   3.495  1.00 20.00     0.015 C 
HETATM    6  C6  UNL     1     -34.785   5.635   2.554  1.00 20.00    -0.002 C 
HETATM    7  C7  UNL     1     -33.506   6.439   4.209  1.00 20.00    -0.014 C 
HETATM    8  C8  UNL     1     -34.333   7.043   3.033  1.00 20.00    -0.033 C 
HETATM    9  C9  UNL     1     -32.759   7.432   5.084  1.00 20.00     0.021 C 
HETATM   10  C10 UNL     1     -33.518   7.823   1.982  1.00 20.00     0.016 C 
HETATM   11  C11 UNL     1     -35.492   7.972   3.457  1.00 20.00     0.016 C 
ENDROOT
TORSDOF 0
