REMARK  2 active torsions:
REMARK  status: ('A' for Active; 'I' for Inactive)
REMARK    1  A    between atoms: C1_1  and  C7_7 
REMARK    2  A    between atoms: C7_7  and  S10_10 
ROOT
HETATM    1  C1  UNL     1     -33.216   6.485   3.774  1.00 20.00     0.009 A 
HETATM    2  C2  UNL     1     -33.743   5.233   3.412  1.00 20.00     0.068 A 
HETATM    3  C3  UNL     1     -33.968   6.853   4.858  1.00 20.00     0.084 A 
HETATM    4  C4  UNL     1     -33.321   4.356   2.306  1.00 20.00     0.073 C 
HETATM    5  C5  UNL     1     -33.978   8.028   5.740  1.00 20.00     0.079 C 
HETATM    6  N8  UNL     1     -34.744   4.854   4.210  1.00 20.00    -0.133 NA
HETATM    7  O9  UNL     1     -34.884   5.888   5.128  1.00 20.00    -0.217 OA
ENDROOT
BRANCH   1   8
HETATM    8  C7  UNL     1     -32.092   7.247   3.127  1.00 20.00     0.116 C 
BRANCH   8   9
HETATM    9  S10 UNL     1     -32.418   7.593   1.382  1.00 20.00    -0.169 SA
HETATM   10  C6  UNL     1     -33.513   9.017   1.590  1.00 20.00     0.090 C 
ENDBRANCH   8   9
ENDBRANCH   1   8
TORSDOF 2
