REMARK  2 active torsions:
REMARK  status: ('A' for Active; 'I' for Inactive)
REMARK    1  A    between atoms: C3_3  and  C9_9 
REMARK    2  A    between atoms: C4_4  and  C10_10 
ROOT
HETATM    1  C1  UNL     1     -34.120   4.977   3.102  1.00 20.00     0.009 A 
HETATM    2  C2  UNL     1     -33.259   5.819   2.535  1.00 20.00     0.009 A 
HETATM    3  C3  UNL     1     -34.798   5.638   4.255  1.00 20.00     0.076 A 
HETATM    4  C4  UNL     1     -33.274   7.128   3.250  1.00 20.00     0.076 A 
HETATM    5  C5  UNL     1     -34.486   4.936   5.575  1.00 20.00     0.050 C 
HETATM    6  C6  UNL     1     -31.921   7.444   3.883  1.00 20.00     0.050 C 
HETATM    7  O11 UNL     1     -34.244   6.974   4.313  1.00 20.00    -0.362 OA
ENDROOT
BRANCH   3   8
HETATM    8  C9  UNL     1     -36.304   5.756   4.037  1.00 20.00     0.037 C 
HETATM    9  C7  UNL     1     -36.980   6.417   5.193  1.00 20.00     0.008 C 
ENDBRANCH   3   8
BRANCH   4  10
HETATM   10  C10 UNL     1     -33.738   8.266   2.344  1.00 20.00     0.037 C 
HETATM   11  C8  UNL     1     -32.845   8.425   1.157  1.00 20.00     0.008 C 
ENDBRANCH   4  10
TORSDOF 2
