REMARK  1 active torsions:
REMARK  status: ('A' for Active; 'I' for Inactive)
REMARK    1  A    between atoms: C5_5  and  C7_7 
ROOT
HETATM    1  C1  UNL     1     -33.500   6.793   4.873  1.00 20.00     0.010 C 
HETATM    2  C2  UNL     1     -34.043   6.061   3.608  1.00 20.00    -0.004 A 
HETATM    3  C3  UNL     1     -34.112   5.901   5.996  1.00 20.00    -0.004 A 
HETATM    4  C4  UNL     1     -34.166   4.587   3.943  1.00 20.00    -0.000 A 
HETATM    5  C5  UNL     1     -35.386   5.453   3.966  1.00 20.00    -0.000 A 
HETATM    6  C6  UNL     1     -34.210   4.485   5.460  1.00 20.00    -0.000 A 
HETATM    7  C7  UNL     1     -35.430   5.351   5.483  1.00 20.00    -0.000 A 
ENDROOT
TORSDOF 1
