REMARK  1 active torsions:
REMARK  status: ('A' for Active; 'I' for Inactive)
REMARK    1  A    between atoms: C4_4  and  C7_7 
ROOT
HETATM    1  C1  UNL     1     -33.562   5.030   2.047  1.00 20.00     0.015 A 
HETATM    2  C2  UNL     1     -34.045   4.451   3.223  1.00 20.00     0.008 A 
HETATM    3  C3  UNL     1     -33.322   7.185   3.153  1.00 20.00     0.022 A 
HETATM    4  C4  UNL     1     -33.204   6.387   2.013  1.00 20.00     0.002 A 
HETATM    5  C5  UNL     1     -34.147   5.246   4.352  1.00 20.00    -0.052 A 
HETATM    6  C6  UNL     1     -33.790   6.599   4.318  1.00 20.00    -0.051 A 
HETATM    7  C8  UNL     1     -34.665   4.865   5.703  1.00 20.00     0.039 C 
HETATM    8  C9  UNL     1     -34.038   7.249   5.642  1.00 20.00     0.039 C 
HETATM    9  C10 UNL     1     -34.133   6.023   6.562  1.00 20.00     0.009 C 
ENDROOT
BRANCH   4  10
HETATM   10  C7  UNL     1     -32.711   6.970   0.774  1.00 20.00     0.269 C 
HETATM   11  O11 UNL     1     -32.379   8.154   0.673  1.00 20.00    -0.301 OA
ENDBRANCH   4  10
TORSDOF 1
