REMARK  2 active torsions:
REMARK  status: ('A' for Active; 'I' for Inactive)
REMARK    1  A    between atoms: C2_2  and  C3_3 
REMARK    2  A    between atoms: N9_9  and  N10_10 
ROOT
HETATM    1  C1  UNL     1     -33.702   6.405   5.736  1.00 20.00    -0.018 C 
HETATM    2  C2  UNL     1     -33.705   6.188   4.416  1.00 20.00    -0.043 C 
HETATM    3  C5  UNL     1     -34.428   5.329   6.473  1.00 20.00     0.028 C 
HETATM    4  C6  UNL     1     -34.434   4.931   4.061  1.00 20.00     0.040 C 
HETATM    5  C7  UNL     1     -35.172   4.596   5.358  1.00 20.00     0.008 C 
ENDROOT
BRANCH   2   6
HETATM    6  C3  UNL     1     -33.088   7.010   3.423  1.00 20.00     0.147 C 
HETATM    7  N9  UNL     1     -33.129   6.740   2.152  1.00 20.00    -0.163 NA
BRANCH   7   8
HETATM    8  N10 UNL     1     -32.447   7.701   1.414  1.00 20.00    -0.168 NA
HETATM    9  C4  UNL     1     -33.245   8.656   1.070  1.00 20.00     0.109 C 
HETATM   10  C8  UNL     1     -32.748   9.814   0.264  1.00 20.00     0.059 C 
ENDBRANCH   7   8
ENDBRANCH   2   6
TORSDOF 2
