REMARK  1 active torsions:
REMARK  status: ('A' for Active; 'I' for Inactive)
REMARK    1  A    between atoms: C3_3  and  C6_6 
ROOT
HETATM    1  C1  UNL     1     -34.770   5.079   5.546  1.00 20.00    -0.030 C 
HETATM    2  C2  UNL     1     -34.567   6.397   5.670  1.00 20.00    -0.026 C 
HETATM    3  C4  UNL     1     -34.272   4.280   4.384  1.00 20.00     0.031 C 
HETATM    4  C5  UNL     1     -33.786   7.219   4.677  1.00 20.00     0.014 C 
HETATM    5  C6  UNL     1     -33.034   6.357   3.630  1.00 20.00     0.058 C 
HETATM    6  C7  UNL     1     -33.875   5.146   3.175  1.00 20.00    -0.004 C 
HETATM    7  C8  UNL     1     -32.807   8.133   5.424  1.00 20.00     0.015 C 
HETATM    8  C9  UNL     1     -33.138   4.278   2.149  1.00 20.00     0.011 C 
ENDROOT
BRANCH   5   9
HETATM    9  C3  UNL     1     -32.705   7.228   2.450  1.00 20.00     0.236 C 
HETATM   10  O10 UNL     1     -33.555   7.782   1.761  1.00 20.00    -0.306 OA
ENDBRANCH   5   9
TORSDOF 1
