REMARK  0 active torsions:
REMARK  status: ('A' for Active; 'I' for Inactive)
ROOT
HETATM    1  C1  UNL     1     -35.968   5.699   4.557  1.00 20.00     0.118 C 
HETATM    2  C2  UNL     1     -33.788   6.478   3.737  1.00 20.00     0.118 C 
HETATM    3  C3  UNL     1     -34.515   5.524   4.576  1.00 20.00     0.288 C 
HETATM    4  N4  UNL     1     -37.120   5.839   4.541  1.00 20.00    -0.193 NA
HETATM    5  N5  UNL     1     -33.212   7.236   3.072  1.00 20.00    -0.193 NA
HETATM    6 CL6  UNL     1     -33.951   5.712   6.254  1.00 20.00    -0.069 Cl
HETATM    7 CL7  UNL     1     -34.143   3.880   4.001  1.00 20.00    -0.069 Cl
ENDROOT
TORSDOF 0
