REMARK  2 active torsions:
REMARK  status: ('A' for Active; 'I' for Inactive)
REMARK    1  A    between atoms: C2_2  and  C4_4 
REMARK    2  A    between atoms: C5_5  and  C9_9 
ROOT
HETATM    1  C1  UNL     1     -34.874   4.581   4.351  1.00 20.00    -0.016 C 
HETATM    2  C2  UNL     1     -35.685   5.648   4.390  1.00 20.00    -0.024 C 
HETATM    3  C6  UNL     1     -33.385   4.698   4.172  1.00 20.00     0.036 C 
HETATM    4  C7  UNL     1     -35.208   7.065   4.292  1.00 20.00     0.042 C 
HETATM    5  C8  UNL     1     -33.690   7.191   4.481  1.00 20.00     0.014 C 
HETATM    6  C9  UNL     1     -32.908   6.098   3.739  1.00 20.00     0.017 C 
ENDROOT
BRANCH   6   7
HETATM    7  C5  UNL     1     -32.992   6.281   2.251  1.00 20.00    -0.089 C 
HETATM    8  C3  UNL     1     -33.470   5.322   1.444  1.00 20.00     0.014 C 
HETATM    9  C10 UNL     1     -32.513   7.599   1.719  1.00 20.00     0.043 C 
ENDBRANCH   6   7
BRANCH   2  10
HETATM   10  C4  UNL     1     -37.120   5.406   4.559  1.00 20.00     0.265 C 
HETATM   11  O11 UNL     1     -37.591   4.281   4.662  1.00 20.00    -0.302 OA
ENDBRANCH   2  10
TORSDOF 2
