REMARK  1 active torsions:
REMARK  status: ('A' for Active; 'I' for Inactive)
REMARK    1  A    between atoms: C6_6  and  C10_10 
ROOT
HETATM    1  C1  UNL     1     -33.977   6.834   4.736  1.00 20.00     0.127 C 
HETATM    2  C2  UNL     1     -34.365   5.387   4.535  1.00 20.00     0.082 C 
HETATM    3  C3  UNL     1     -33.741   7.648   3.485  1.00 20.00     0.083 C 
HETATM    4  C4  UNL     1     -33.239   5.488   2.274  1.00 20.00     0.010 C 
HETATM    5  C5  UNL     1     -33.387   4.695   3.582  1.00 20.00    -0.011 C 
HETATM    6  C6  UNL     1     -32.772   6.926   2.548  1.00 20.00    -0.004 C 
HETATM    7  C7  UNL     1     -33.839   3.264   3.298  1.00 20.00     0.010 C 
HETATM    8  O11 UNL     1     -33.956   7.346   5.854  1.00 20.00    -0.298 OA
ENDROOT
BRANCH   6   9
HETATM    9  C10 UNL     1     -32.615   7.700   1.240  1.00 20.00    -0.018 C 
HETATM   10  C8  UNL     1     -33.954   7.804   0.514  1.00 20.00     0.010 C 
HETATM   11  C9  UNL     1     -32.038   9.088   1.505  1.00 20.00     0.010 C 
ENDBRANCH   6   9
TORSDOF 1
