REMARK  1 active torsions:
REMARK  status: ('A' for Active; 'I' for Inactive)
REMARK    1  A    between atoms: C8_8  and  O9_9 
ROOT
HETATM    1  C1  UNL     1     -32.750   9.057   0.611  1.00 20.00     0.015 C 
HETATM    2  C2  UNL     1     -32.863   8.259   1.500  1.00 20.00    -0.079 C 
HETATM    3  C3  UNL     1     -34.662   5.275   4.030  1.00 20.00     0.000 C 
HETATM    4  C4  UNL     1     -34.410   6.658   4.621  1.00 20.00     0.004 C 
HETATM    5  C5  UNL     1     -33.523   4.840   3.112  1.00 20.00     0.004 C 
HETATM    6  C6  UNL     1     -34.143   7.698   3.531  1.00 20.00     0.051 C 
HETATM    7  C7  UNL     1     -33.257   5.874   2.017  1.00 20.00     0.051 C 
HETATM    8  C8  UNL     1     -33.003   7.278   2.590  1.00 20.00     0.120 C 
ENDROOT
BRANCH   8   9
HETATM    9  O9  UNL     1     -31.791   7.260   3.349  1.00 20.00    -0.378 OA
HETATM   10  H21 UNL     1     -31.087   7.006   2.733  1.00 20.00     0.211 HD
ENDBRANCH   8   9
TORSDOF 1
