REMARK  1 active torsions:
REMARK  status: ('A' for Active; 'I' for Inactive)
REMARK    1  A    between atoms: C6_6  and  C10_10 
ROOT
HETATM    1  C1  UNL     1     -32.860   4.755   2.202  1.00 20.00     0.053 A 
HETATM    2  C2  UNL     1     -32.677   6.084   2.133  1.00 20.00    -0.075 A 
HETATM    3  C3  UNL     1     -33.779   4.516   3.338  1.00 20.00     0.159 A 
HETATM    4  C4  UNL     1     -34.884   6.861   3.230  1.00 20.00     0.029 A 
HETATM    5  C5  UNL     1     -33.383   6.878   3.156  1.00 20.00     0.032 A 
HETATM    6  C6  UNL     1     -34.099   5.823   4.001  1.00 20.00     0.035 A 
HETATM    7  C7  UNL     1     -31.836   6.774   1.115  1.00 20.00     0.044 C 
HETATM    8  O11 UNL     1     -34.215   3.434   3.693  1.00 20.00    -0.292 OA
ENDROOT
BRANCH   6   9
HETATM    9  C10 UNL     1     -34.046   5.931   5.496  1.00 20.00    -0.006 C 
HETATM   10  C8  UNL     1     -34.371   7.356   5.971  1.00 20.00     0.011 C 
HETATM   11  C9  UNL     1     -35.003   4.934   6.168  1.00 20.00     0.011 C 
ENDBRANCH   6   9
TORSDOF 1
