REMARK  1 active torsions:
REMARK  status: ('A' for Active; 'I' for Inactive)
REMARK    1  A    between atoms: C1_1  and  C6_6 
ROOT
HETATM    1  C3  UNL     1     -35.769   5.628   4.096  1.00 20.00     0.022 C 
HETATM    2  C4  UNL     1     -34.099   4.302   5.431  1.00 20.00     0.022 C 
HETATM    3  C5  UNL     1     -33.707   4.726   3.005  1.00 20.00     0.022 C 
HETATM    4  C6  UNL     1     -34.280   5.324   4.301  1.00 20.00     0.009 C 
ENDROOT
BRANCH   4   5
HETATM    5  C1  UNL     1     -33.543   6.637   4.629  1.00 20.00     0.130 C 
HETATM    6  C2  UNL     1     -33.962   7.410   5.858  1.00 20.00     0.091 C 
HETATM    7  O7  UNL     1     -32.644   7.077   3.909  1.00 20.00    -0.298 OA
ENDBRANCH   4   5
TORSDOF 1
