REMARK  2 active torsions:
REMARK  status: ('A' for Active; 'I' for Inactive)
REMARK    1  A    between atoms: C1_1  and  C2_2 
REMARK    2  A    between atoms: C1_1  and  C3_3 
ROOT
HETATM    1  C1  UNL     1     -33.185   6.262   3.302  1.00 20.00     0.168 C 
HETATM    2  O4  UNL     1     -33.318   5.114   2.881  1.00 20.00    -0.294 OA
ENDROOT
BRANCH   1   3
HETATM    3  C2  UNL     1     -34.061   6.780   4.413  1.00 20.00     0.301 C 
HETATM    4  F5  UNL     1     -33.322   7.138   5.497  1.00 20.00    -0.248 F 
ENDBRANCH   1   3
BRANCH   1   5
HETATM    5  C3  UNL     1     -32.161   7.236   2.766  1.00 20.00     0.195 C 
HETATM    6 CL6  UNL     1     -32.829   8.167   1.417  1.00 20.00    -0.122 Cl
ENDBRANCH   1   5
TORSDOF 2
