REMARK  0 active torsions:
REMARK  status: ('A' for Active; 'I' for Inactive)
ROOT
HETATM    1  C1  UNL     1     -34.104   4.092   4.390  1.00 20.00    -0.018 C 
HETATM    2  C2  UNL     1     -34.524   4.621   5.552  1.00 20.00    -0.025 C 
HETATM    3  C3  UNL     1     -33.431   6.239   3.618  1.00 20.00     0.135 C 
HETATM    4  C4  UNL     1     -33.891   6.936   4.898  1.00 20.00     0.087 C 
HETATM    5  C5  UNL     1     -35.670   5.721   3.863  1.00 20.00     0.025 C 
HETATM    6  C6  UNL     1     -34.387   5.096   3.306  1.00 20.00     0.078 C 
HETATM    7  C7  UNL     1     -35.074   6.002   5.250  1.00 20.00     0.016 C 
HETATM    8  O8  UNL     1     -32.432   6.526   2.977  1.00 20.00    -0.297 OA
ENDROOT
TORSDOF 0
