REMARK  2 active torsions:
REMARK  status: ('A' for Active; 'I' for Inactive)
REMARK    1  A    between atoms: C2_2  and  C4_4 
REMARK    2  A    between atoms: C3_3  and  C4_4 
ROOT
HETATM    1  C4  UNL     1     -34.358   6.886   4.304  1.00 20.00     0.127 C 
HETATM    2 CL7  UNL     1     -33.354   7.481   5.661  1.00 20.00    -0.121 Cl
ENDROOT
BRANCH   1   3
HETATM    3  C2  UNL     1     -33.459   6.439   3.156  1.00 20.00     0.164 A 
HETATM    4  C1  UNL     1     -32.029   6.893   3.066  1.00 20.00     0.201 A 
HETATM    5  O5  UNL     1     -33.064   7.489   2.267  1.00 20.00    -0.380 OA
ENDBRANCH   1   3
BRANCH   1   6
HETATM    6  C3  UNL     1     -35.328   5.806   4.785  1.00 20.00     0.137 C 
HETATM    7 CL6  UNL     1     -34.583   4.608   5.873  1.00 20.00    -0.129 Cl
ENDBRANCH   1   6
TORSDOF 2
