REMARK  0 active torsions:
REMARK  status: ('A' for Active; 'I' for Inactive)
ROOT
HETATM    1  C1  UNL     1     -33.607   5.723   3.123  1.00 20.00    -0.021 C 
HETATM    2  C2  UNL     1     -33.841   4.492   3.618  1.00 20.00    -0.021 C 
HETATM    3  C3  UNL     1     -33.900   6.684   5.377  1.00 20.00    -0.021 C 
HETATM    4  C4  UNL     1     -34.134   5.452   5.871  1.00 20.00    -0.021 C 
HETATM    5  C5  UNL     1     -35.650   5.797   4.177  1.00 20.00     0.024 C 
HETATM    6  C6  UNL     1     -34.426   6.697   3.952  1.00 20.00     0.031 C 
HETATM    7  C7  UNL     1     -34.814   4.654   4.772  1.00 20.00     0.031 C 
ENDROOT
TORSDOF 0
