REMARK  1 active torsions:
REMARK  status: ('A' for Active; 'I' for Inactive)
REMARK    1  A    between atoms: C3_3  and  C6_6 
ROOT
HETATM    1  C1  UNL     1     -33.414   6.925   3.145  1.00 20.00     0.100 C 
HETATM    2  C2  UNL     1     -34.047   4.518   3.739  1.00 20.00     0.169 A 
HETATM    3  C3  UNL     1     -33.867   5.974   4.116  1.00 20.00     0.174 A 
HETATM    4  C4  UNL     1     -33.766   3.982   2.379  1.00 20.00     0.044 C 
HETATM    5  N7  UNL     1     -33.048   7.695   2.358  1.00 20.00    -0.194 NA
HETATM    6  O8  UNL     1     -35.156   5.421   3.803  1.00 20.00    -0.354 OA
ENDROOT
BRANCH   3   7
HETATM    7  C6  UNL     1     -33.710   6.340   5.558  1.00 20.00     0.052 C 
HETATM    8  C5  UNL     1     -34.331   5.331   6.487  1.00 20.00     0.009 C 
ENDBRANCH   3   7
TORSDOF 1
