REMARK  1 active torsions:
REMARK  status: ('A' for Active; 'I' for Inactive)
REMARK    1  A    between atoms: C1_1  and  C3_3 
ROOT
HETATM    1  C1  UNL     1     -33.013   7.448   2.369  1.00 20.00     0.000 C 
HETATM    2  C2  UNL     1     -32.630   7.824   1.145  1.00 20.00     0.081 C 
HETATM    3 CL4  UNL     1     -32.899   9.397   0.525  1.00 20.00    -0.097 Cl
ENDROOT
BRANCH   1   4
HETATM    4  C3  UNL     1     -32.773   6.081   2.918  1.00 20.00     0.142 C 
HETATM    5 CL5  UNL     1     -34.322   5.311   3.323  1.00 20.00    -0.126 Cl
ENDBRANCH   1   4
TORSDOF 1
