REMARK  2 active torsions:
REMARK  status: ('A' for Active; 'I' for Inactive)
REMARK    1  A    between atoms: C2_2  and  C4_4 
REMARK    2  A    between atoms: C3_3  and  C4_4 
ROOT
HETATM    1  C4  UNL     1     -33.811   4.081   3.962  1.00 20.00     0.127 C 
HETATM    2 CL7  UNL     1     -34.363   2.379   3.963  1.00 20.00    -0.121 Cl
ENDROOT
BRANCH   1   3
HETATM    3  C2  UNL     1     -34.788   4.938   4.759  1.00 20.00     0.164 A 
HETATM    4  C1  UNL     1     -34.511   5.308   6.189  1.00 20.00     0.201 A 
HETATM    5  O5  UNL     1     -34.292   6.233   5.112  1.00 20.00    -0.380 OA
ENDBRANCH   1   3
BRANCH   1   6
HETATM    6  C3  UNL     1     -33.579   4.581   2.535  1.00 20.00     0.137 C 
HETATM    7 CL6  UNL     1     -32.917   6.232   2.453  1.00 20.00    -0.129 Cl
ENDBRANCH   1   6
TORSDOF 2
