REMARK  0 active torsions:
REMARK  status: ('A' for Active; 'I' for Inactive)
ROOT
HETATM    1  C1  UNL     1     -33.496   4.216   3.303  1.00 20.00    -0.029 C 
HETATM    2  C2  UNL     1     -34.290   4.426   4.357  1.00 20.00    -0.023 C 
HETATM    3  C3  UNL     1     -32.770   7.164   4.319  1.00 20.00     0.264 C 
HETATM    4  C4  UNL     1     -33.278   5.467   2.516  1.00 20.00     0.042 C 
HETATM    5  C5  UNL     1     -34.460   6.537   5.745  1.00 20.00     0.188 C 
HETATM    6  C6  UNL     1     -34.749   5.851   4.432  1.00 20.00     0.046 C 
HETATM    7  C7  UNL     1     -33.835   6.553   3.437  1.00 20.00     0.098 C 
HETATM    8  O8  UNL     1     -31.723   7.659   3.930  1.00 20.00    -0.265 OA
HETATM    9  O9  UNL     1     -33.146   7.093   5.630  1.00 20.00    -0.320 OA
ENDROOT
TORSDOF 0
