REMARK  1 active torsions:
REMARK  status: ('A' for Active; 'I' for Inactive)
REMARK    1  A    between atoms: C1_1  and  C5_5 
ROOT
HETATM    1  C2  UNL     1     -33.422   4.795   3.372  1.00 20.00     0.022 C 
HETATM    2  C3  UNL     1     -34.254   4.630   5.734  1.00 20.00     0.022 C 
HETATM    3  C4  UNL     1     -35.732   5.594   3.949  1.00 20.00     0.022 C 
HETATM    4  C5  UNL     1     -34.289   5.459   4.446  1.00 20.00     0.002 C 
ENDROOT
BRANCH   4   5
HETATM    5  C1  UNL     1     -33.743   6.860   4.689  1.00 20.00     0.239 C 
HETATM    6  O6  UNL     1     -33.321   7.268   5.767  1.00 20.00    -0.306 OA
ENDBRANCH   4   5
TORSDOF 1
