REMARK  1 active torsions:
REMARK  status: ('A' for Active; 'I' for Inactive)
REMARK    1  A    between atoms: C3_3  and  C8_8 
ROOT
HETATM    1  C1  UNL     1     -34.285   5.512   5.781  1.00 20.00    -0.026 C 
HETATM    2  C2  UNL     1     -34.191   6.647   5.073  1.00 20.00    -0.025 C 
HETATM    3  C4  UNL     1     -35.906   5.418   4.135  1.00 20.00     0.017 C 
HETATM    4  C5  UNL     1     -33.954   4.102   3.780  1.00 20.00     0.021 C 
HETATM    5  C6  UNL     1     -34.953   4.489   4.895  1.00 20.00     0.009 C 
HETATM    6  C7  UNL     1     -34.787   6.376   3.708  1.00 20.00     0.019 C 
HETATM    7  C8  UNL     1     -33.870   5.403   2.931  1.00 20.00     0.055 C 
ENDROOT
BRANCH   7   8
HETATM    8  C3  UNL     1     -32.469   5.907   2.767  1.00 20.00     0.236 C 
HETATM    9  O9  UNL     1     -32.188   7.095   2.653  1.00 20.00    -0.306 OA
ENDBRANCH   7   8
TORSDOF 1
