REMARK  0 active torsions:
REMARK  status: ('A' for Active; 'I' for Inactive)
ROOT
HETATM    1  C1  UNL     1     -33.351   6.428   3.691  1.00 20.00    -0.017 C 
HETATM    2  C2  UNL     1     -33.923   5.152   3.159  1.00 20.00     0.159 C 
HETATM    3  C3  UNL     1     -32.319   7.093   3.177  1.00 20.00     0.023 C 
HETATM    4  C4  UNL     1     -33.985   5.708   5.977  1.00 20.00     0.010 C 
HETATM    5  C5  UNL     1     -34.563   4.393   5.393  1.00 20.00     0.013 C 
HETATM    6  C6  UNL     1     -35.597   6.259   4.323  1.00 20.00     0.022 C 
HETATM    7  C7  UNL     1     -34.247   6.745   4.866  1.00 20.00     0.022 C 
HETATM    8  C8  UNL     1     -35.119   4.830   4.030  1.00 20.00     0.061 C 
HETATM    9  O9  UNL     1     -33.480   4.487   2.243  1.00 20.00    -0.292 OA
ENDROOT
TORSDOF 0
