REMARK  4 active torsions:
REMARK  status: ('A' for Active; 'I' for Inactive)
REMARK    1  A    between atoms: C1_1  and  C7_7 
REMARK    2  A    between atoms: C1_1  and  C8_8 
REMARK    3  A    between atoms: C7_7  and  C9_9 
REMARK    4  A    between atoms: C8_8  and  C10_10 
ROOT
HETATM    1  C1  UNL     1     -33.324   7.104   2.555  1.00 20.00     0.131 C 
HETATM    2  O11 UNL     1     -34.296   7.853   2.450  1.00 20.00    -0.298 OA
ENDROOT
BRANCH   1   3
HETATM    3  C7  UNL     1     -32.035   7.348   1.780  1.00 20.00     0.082 C 
BRANCH   3   4
HETATM    4  C9  UNL     1     -32.250   8.109   0.464  1.00 20.00    -0.016 C 
HETATM    5  C3  UNL     1     -33.183   7.342  -0.477  1.00 20.00     0.010 C 
HETATM    6  C4  UNL     1     -32.827   9.497   0.749  1.00 20.00     0.010 C 
ENDBRANCH   3   4
ENDBRANCH   1   3
BRANCH   1   7
HETATM    7  C8  UNL     1     -33.357   5.859   3.446  1.00 20.00     0.054 C 
HETATM    8  C2  UNL     1     -33.762   4.631   2.629  1.00 20.00     0.018 C 
BRANCH   7   9
HETATM    9  C10 UNL     1     -34.231   6.120   4.698  1.00 20.00    -0.012 C 
HETATM   10  C5  UNL     1     -33.485   6.970   5.731  1.00 20.00     0.010 C 
HETATM   11  C6  UNL     1     -34.752   4.842   5.360  1.00 20.00     0.010 C 
ENDBRANCH   7   9
ENDBRANCH   1   7
TORSDOF 4
