REMARK  0 active torsions:
REMARK  status: ('A' for Active; 'I' for Inactive)
ROOT
HETATM    1  C1  UNL     1     -34.547   5.988   5.642  1.00 20.00     0.128 C 
HETATM    2  C2  UNL     1     -34.839   4.507   5.584  1.00 20.00     0.087 C 
HETATM    3  C3  UNL     1     -34.594   6.729   4.326  1.00 20.00     0.087 C 
HETATM    4  C4  UNL     1     -33.867   4.550   3.236  1.00 20.00     0.018 C 
HETATM    5  C5  UNL     1     -33.912   3.790   4.589  1.00 20.00    -0.041 C 
HETATM    6  C6  UNL     1     -33.659   6.088   3.287  1.00 20.00    -0.041 C 
HETATM    7  C7  UNL     1     -32.513   3.606   5.204  1.00 20.00     0.015 C 
HETATM    8  C8  UNL     1     -34.478   2.377   4.324  1.00 20.00     0.015 C 
HETATM    9  C9  UNL     1     -32.196   6.471   3.580  1.00 20.00     0.015 C 
HETATM   10  C10 UNL     1     -34.005   6.663   1.895  1.00 20.00     0.015 C 
HETATM   11  O11 UNL     1     -34.361   6.572   6.708  1.00 20.00    -0.298 OA
ENDROOT
TORSDOF 0
