REMARK  0 active torsions:
REMARK  status: ('A' for Active; 'I' for Inactive)
ROOT
HETATM    1  C1  UNL     1     -32.558   7.177   3.730  1.00 20.00     0.064 C 
HETATM    2  C2  UNL     1     -33.820   4.514   5.847  1.00 20.00     0.005 C 
HETATM    3  C3  UNL     1     -34.131   6.009   6.004  1.00 20.00     0.006 C 
HETATM    4  C4  UNL     1     -33.403   4.835   3.401  1.00 20.00     0.024 C 
HETATM    5  C5  UNL     1     -35.577   5.108   4.355  1.00 20.00     0.010 C 
HETATM    6  C6  UNL     1     -33.736   6.336   3.502  1.00 20.00     0.097 C 
HETATM    7  C7  UNL     1     -34.349   4.200   4.439  1.00 20.00    -0.013 C 
HETATM    8  C8  UNL     1     -34.771   6.377   4.650  1.00 20.00     0.003 C 
HETATM    9  N9  UNL     1     -31.625   7.843   3.911  1.00 20.00    -0.197 NA
ENDROOT
TORSDOF 0
