REMARK  3 active torsions:
REMARK  status: ('A' for Active; 'I' for Inactive)
REMARK    1  A    between atoms: C1_1  and  C7_7 
REMARK    2  A    between atoms: C1_1  and  C9_9 
REMARK    3  A    between atoms: C7_7  and  C8_8 
ROOT
HETATM    1  C1  UNL     1     -33.352   6.546   2.880  1.00 20.00     0.134 C 
HETATM    2  O10 UNL     1     -32.147   6.537   3.145  1.00 20.00    -0.297 OA
ENDROOT
BRANCH   1   3
HETATM    3  C7  UNL     1     -33.875   7.275   1.645  1.00 20.00     0.083 C 
BRANCH   3   4
HETATM    4  C8  UNL     1     -32.775   7.995   0.848  1.00 20.00    -0.016 C 
HETATM    5  C2  UNL     1     -32.087   9.039   1.729  1.00 20.00     0.010 C 
HETATM    6  C3  UNL     1     -33.345   8.668  -0.404  1.00 20.00     0.010 C 
ENDBRANCH   3   4
ENDBRANCH   1   3
BRANCH   1   7
HETATM    7  C9  UNL     1     -34.377   5.835   3.789  1.00 20.00     0.009 C 
HETATM    8  C4  UNL     1     -35.792   6.027   3.214  1.00 20.00     0.022 C 
HETATM    9  C5  UNL     1     -34.084   4.331   3.863  1.00 20.00     0.022 C 
HETATM   10  C6  UNL     1     -34.321   6.460   5.188  1.00 20.00     0.022 C 
ENDBRANCH   1   7
TORSDOF 3
