REMARK  1 active torsions:
REMARK  status: ('A' for Active; 'I' for Inactive)
REMARK    1  A    between atoms: C7_7  and  C8_8 
ROOT
HETATM    1  C1  UNL     1     -31.883   6.736   3.371  1.00 20.00     0.015 C 
HETATM    2  C2  UNL     1     -33.373   5.079   2.268  1.00 20.00     0.015 C 
HETATM    3  C3  UNL     1     -34.103   7.444   2.503  1.00 20.00     0.015 C 
HETATM    4  C7  UNL     1     -33.360   6.295   3.226  1.00 20.00    -0.045 C 
ENDROOT
BRANCH   4   5
HETATM    5  C8  UNL     1     -34.022   5.950   4.638  1.00 20.00    -0.045 C 
HETATM    6  C4  UNL     1     -34.009   7.166   5.597  1.00 20.00     0.015 C 
HETATM    7  C5  UNL     1     -33.280   4.801   5.362  1.00 20.00     0.015 C 
HETATM    8  C6  UNL     1     -35.499   5.509   4.494  1.00 20.00     0.015 C 
ENDBRANCH   4   5
TORSDOF 1
