REMARK  0 active torsions:
REMARK  status: ('A' for Active; 'I' for Inactive)
ROOT
HETATM    1  C1  UNL     1     -34.111   6.075   6.356  1.00 20.00     0.002 A 
HETATM    2  C2  UNL     1     -33.447   6.655   5.275  1.00 20.00     0.016 A 
HETATM    3  C3  UNL     1     -34.695   4.802   6.236  1.00 20.00     0.019 A 
HETATM    4  C4  UNL     1     -33.393   5.929   4.100  1.00 20.00     0.017 A 
HETATM    5  C5  UNL     1     -33.963   4.669   3.960  1.00 20.00    -0.026 A 
HETATM    6  C6  UNL     1     -34.623   4.092   5.033  1.00 20.00     0.018 A 
HETATM    7  C7  UNL     1     -32.772   6.289   2.835  1.00 20.00     0.160 A 
HETATM    8  C8  UNL     1     -33.768   4.092   2.595  1.00 20.00     0.048 A 
HETATM    9  C9  UNL     1     -32.972   5.171   1.840  1.00 20.00     0.088 A 
HETATM   10  O10 UNL     1     -32.187   7.338   2.633  1.00 20.00    -0.292 OA
HETATM   11 BR11 UNL     1     -35.423   2.384   4.914  1.00 20.00    -0.051 Br
ENDROOT
TORSDOF 0
