REMARK  2 active torsions:
REMARK  status: ('A' for Active; 'I' for Inactive)
REMARK    1  A    between atoms: C1_1  and  C6_6 
REMARK    2  A    between atoms: C1_1  and  C7_7 
ROOT
HETATM    1  C1  UNL     1     -33.696   5.465   3.472  1.00 20.00     0.135 C 
HETATM    2  O8  UNL     1     -33.817   4.252   3.312  1.00 20.00    -0.297 OA
ENDROOT
BRANCH   1   3
HETATM    3  C6  UNL     1     -32.756   6.257   2.672  1.00 20.00     0.056 A 
HETATM    4  C2  UNL     1     -33.119   7.666   2.286  1.00 20.00     0.013 A 
HETATM    5  C3  UNL     1     -32.049   7.424   3.307  1.00 20.00     0.013 A 
ENDBRANCH   1   3
BRANCH   1   6
HETATM    6  C7  UNL     1     -34.507   6.210   4.498  1.00 20.00     0.056 A 
HETATM    7  C4  UNL     1     -35.014   5.456   5.674  1.00 20.00     0.013 A 
HETATM    8  C5  UNL     1     -33.899   6.445   5.834  1.00 20.00     0.013 A 
ENDBRANCH   1   6
TORSDOF 2
