REMARK  2 active torsions:
REMARK  status: ('A' for Active; 'I' for Inactive)
REMARK    1  A    between atoms: C6_6  and  C7_7 
REMARK    2  A    between atoms: C7_7  and  C8_8 
ROOT
HETATM    1  C1  UNL     1     -33.849   5.283   3.593  1.00 20.00     0.069 C 
HETATM    2  C2  UNL     1     -34.732   6.507   6.265  1.00 20.00     0.002 C 
HETATM    3  C3  UNL     1     -33.208   6.614   6.283  1.00 20.00     0.002 C 
HETATM    4  C4  UNL     1     -35.174   6.947   4.869  1.00 20.00     0.024 C 
HETATM    5  C5  UNL     1     -32.798   7.113   4.897  1.00 20.00     0.024 C 
HETATM    6  C6  UNL     1     -33.953   6.709   3.972  1.00 20.00     0.050 C 
HETATM    7  N9  UNL     1     -33.767   4.165   3.295  1.00 20.00    -0.196 NA
ENDROOT
BRANCH   6   8
HETATM    8  C7  UNL     1     -33.997   7.565   2.707  1.00 20.00     0.039 C 
BRANCH   8   9
HETATM    9  C8  UNL     1     -32.726   7.474   1.875  1.00 20.00     0.116 C 
HETATM   10 CL10 UNL     1     -32.799   8.503   0.426  1.00 20.00    -0.130 Cl
ENDBRANCH   8   9
ENDBRANCH   6   8
TORSDOF 2
