REMARK  3 active torsions:
REMARK  status: ('A' for Active; 'I' for Inactive)
REMARK    1  A    between atoms: C2_2  and  C8_8 
REMARK    2  A    between atoms: C4_4  and  C7_7 
REMARK    3  A    between atoms: C7_7  and  C8_8 
ROOT
HETATM    1  C7  UNL     1     -33.223   6.273   3.186  1.00 20.00     0.034 C 
ENDROOT
BRANCH   1   2
HETATM    2  C4  UNL     1     -32.920   7.511   2.389  1.00 20.00    -0.030 C 
HETATM    3  C3  UNL     1     -32.989   7.573   1.051  1.00 20.00    -0.035 C 
HETATM    4  C5  UNL     1     -32.690   8.803   0.259  1.00 20.00     0.035 C 
ENDBRANCH   1   2
BRANCH   1   5
HETATM    5  C8  UNL     1     -34.377   6.478   4.188  1.00 20.00     0.007 C 
HETATM    6  C6  UNL     1     -33.867   7.212   5.431  1.00 20.00     0.014 C 
BRANCH   5   7
HETATM    7  C2  UNL     1     -34.991   5.161   4.602  1.00 20.00    -0.032 C 
HETATM    8  C1  UNL     1     -34.318   4.006   4.651  1.00 20.00     0.007 C 
ENDBRANCH   5   7
ENDBRANCH   1   5
TORSDOF 3
