REMARK  2 active torsions:
REMARK  status: ('A' for Active; 'I' for Inactive)
REMARK    1  A    between atoms: C3_3  and  C5_5 
REMARK    2  A    between atoms: C5_5  and  N6_6 
ROOT
HETATM    1  C1  UNL     1     -32.664   7.793   2.036  1.00 20.00     0.157 C 
HETATM    2  N6  UNL     1     -32.324   7.144   2.954  1.00 20.00    -0.271 NA
HETATM    3  S7  UNL     1     -33.098   8.677   0.784  1.00 20.00    -0.055 SA
ENDROOT
BRANCH   2   4
HETATM    4  C5  UNL     1     -33.412   6.666   3.809  1.00 20.00     0.183 C 
BRANCH   4   5
HETATM    5  C3  UNL     1     -33.863   5.304   3.359  1.00 20.00    -0.073 C 
HETATM    6  C2  UNL     1     -33.303   4.691   2.304  1.00 20.00     0.015 C 
HETATM    7  C4  UNL     1     -34.990   4.675   4.126  1.00 20.00     0.044 C 
ENDBRANCH   4   5
ENDBRANCH   2   4
TORSDOF 2
