REMARK  1 active torsions:
REMARK  status: ('A' for Active; 'I' for Inactive)
REMARK    1  A    between atoms: C8_8  and  O10_10 
ROOT
HETATM    1  C1  UNL     1     -33.973   5.330   1.448  1.00 20.00     0.005 C 
HETATM    2  C2  UNL     1     -32.013   5.363   3.009  1.00 20.00     0.005 C 
HETATM    3  C3  UNL     1     -34.413   6.690   2.009  1.00 20.00     0.008 C 
HETATM    4  C4  UNL     1     -32.488   6.713   3.566  1.00 20.00     0.008 C 
HETATM    5  C5  UNL     1     -34.155   4.273   3.714  1.00 20.00     0.042 C 
HETATM    6  C6  UNL     1     -33.213   4.531   2.520  1.00 20.00    -0.012 C 
HETATM    7  C7  UNL     1     -34.025   6.796   3.500  1.00 20.00     0.019 C 
HETATM    8  C8  UNL     1     -34.659   5.618   4.292  1.00 20.00     0.058 C 
HETATM    9  C9  UNL     1     -34.396   5.703   5.798  1.00 20.00     0.046 C 
ENDROOT
BRANCH   8  10
HETATM   10  O10 UNL     1     -36.082   5.662   4.123  1.00 20.00    -0.390 OA
HETATM   11  H26 UNL     1     -36.434   4.905   4.612  1.00 20.00     0.210 HD
ENDBRANCH   8  10
TORSDOF 1
