REMARK  2 active torsions:
REMARK  status: ('A' for Active; 'I' for Inactive)
REMARK    1  A    between atoms: C1_1  and  C3_3 
REMARK    2  A    between atoms: C1_1  and  O5_5 
ROOT
HETATM    1  C1  UNL     1     -33.465   5.893   3.179  1.00 20.00     0.291 C 
HETATM    2  O4  UNL     1     -33.122   4.914   2.530  1.00 20.00    -0.262 OA
ENDROOT
BRANCH   1   3
HETATM    3  C3  UNL     1     -34.314   5.862   4.422  1.00 20.00     0.277 C 
HETATM    4 CL6  UNL     1     -34.777   4.192   4.789  1.00 20.00    -0.097 Cl
HETATM    5 CL7  UNL     1     -33.371   6.559   5.746  1.00 20.00    -0.097 Cl
ENDBRANCH   1   3
BRANCH   1   6
HETATM    6  O5  UNL     1     -33.114   7.187   2.908  1.00 20.00    -0.324 OA
HETATM    7  C2  UNL     1     -32.278   7.373   1.762  1.00 20.00     0.213 C 
ENDBRANCH   1   6
TORSDOF 2
