REMARK  0 active torsions:
REMARK  status: ('A' for Active; 'I' for Inactive)
ROOT
HETATM    1  C1  UNL     1     -34.676   4.716   4.733  1.00 20.00     0.047 C 
HETATM    2  C2  UNL     1     -34.179   4.501   3.510  1.00 20.00    -0.013 C 
HETATM    3  C3  UNL     1     -32.781   8.151   1.648  1.00 20.00    -0.030 C 
HETATM    4  C4  UNL     1     -33.782   7.453   1.097  1.00 20.00    -0.030 C 
HETATM    5  C5  UNL     1     -34.503   6.033   5.389  1.00 20.00     0.149 C 
HETATM    6  C6  UNL     1     -32.060   7.718   2.889  1.00 20.00     0.033 C 
HETATM    7  C7  UNL     1     -34.289   6.154   1.651  1.00 20.00     0.040 C 
HETATM    8  C8  UNL     1     -33.827   7.141   4.615  1.00 20.00     0.088 C 
HETATM    9  C9  UNL     1     -32.759   6.581   3.662  1.00 20.00     0.008 C 
HETATM   10  C10 UNL     1     -33.363   5.503   2.714  1.00 20.00    -0.019 C 
HETATM   11  C11 UNL     1     -32.219   4.736   2.013  1.00 20.00     0.020 C 
HETATM   12  O12 UNL     1     -34.962   6.218   6.515  1.00 20.00    -0.293 OA
ENDROOT
TORSDOF 0
