REMARK  0 active torsions:
REMARK  status: ('A' for Active; 'I' for Inactive)
ROOT
HETATM    1  C1  UNL     1     -33.559   5.768   3.366  1.00 20.00     0.282 C 
HETATM    2  C2  UNL     1     -34.172   4.458   3.813  1.00 20.00     0.278 C 
HETATM    3  C3  UNL     1     -34.203   6.652   5.533  1.00 20.00     0.205 C 
HETATM    4  C4  UNL     1     -34.276   5.222   6.009  1.00 20.00     0.195 C 
HETATM    5  O5  UNL     1     -33.098   5.907   2.236  1.00 20.00    -0.263 OA
HETATM    6  O6  UNL     1     -33.480   6.754   4.293  1.00 20.00    -0.318 OA
HETATM    7  O7  UNL     1     -34.941   4.484   4.995  1.00 20.00    -0.379 OA
ENDROOT
TORSDOF 0
