REMARK  3 active torsions:
REMARK  status: ('A' for Active; 'I' for Inactive)
REMARK    1  A    between atoms: C5_5  and  C7_7 
REMARK    2  A    between atoms: C6_6  and  C8_8 
REMARK    3  A    between atoms: C7_7  and  C8_8 
ROOT
HETATM    1  C1  UNL     1     -34.710   5.815   6.264  1.00 20.00     0.012 C 
HETATM    2  C3  UNL     1     -34.486   5.214   5.249  1.00 20.00    -0.117 C 
HETATM    3  C5  UNL     1     -34.215   4.473   4.009  1.00 20.00     0.093 C 
ENDROOT
BRANCH   3   4
HETATM    4  C7  UNL     1     -33.098   5.115   3.182  1.00 20.00     0.013 C 
BRANCH   4   5
HETATM    5  C8  UNL     1     -33.456   6.525   2.694  1.00 20.00     0.013 C 
BRANCH   5   6
HETATM    6  C6  UNL     1     -32.370   7.138   1.806  1.00 20.00     0.093 C 
HETATM    7  C4  UNL     1     -32.756   8.456   1.283  1.00 20.00    -0.117 C 
HETATM    8  C2  UNL     1     -33.068   9.532   0.852  1.00 20.00     0.012 C 
ENDBRANCH   5   6
ENDBRANCH   4   5
ENDBRANCH   3   4
TORSDOF 3
