REMARK  2 active torsions:
REMARK  status: ('A' for Active; 'I' for Inactive)
REMARK    1  A    between atoms: C4_4  and  C5_5 
REMARK    2  A    between atoms: C4_4  and  C6_6 
ROOT
HETATM    1  C1  UNL     1     -36.130   4.809   4.707  1.00 20.00     0.068 C 
HETATM    2  C2  UNL     1     -34.198   5.389   6.100  1.00 20.00     0.031 C 
HETATM    3  C3  UNL     1     -33.938   3.826   4.167  1.00 20.00     0.031 C 
HETATM    4  C6  UNL     1     -34.674   5.078   4.668  1.00 20.00     0.043 C 
HETATM    5  N7  UNL     1     -37.271   4.597   4.738  1.00 20.00    -0.196 NA
ENDROOT
BRANCH   4   6
HETATM    6  C4  UNL     1     -34.380   6.310   3.773  1.00 20.00     0.039 C 
BRANCH   6   7
HETATM    7  C5  UNL     1     -32.900   6.658   3.617  1.00 20.00     0.116 C 
HETATM    8 CL8  UNL     1     -32.710   8.072   2.548  1.00 20.00    -0.130 Cl
ENDBRANCH   6   7
ENDBRANCH   4   6
TORSDOF 2
