REMARK  1 active torsions:
REMARK  status: ('A' for Active; 'I' for Inactive)
REMARK    1  A    between atoms: C3_3  and  C4_4 
ROOT
HETATM    1  C1  UNL     1     -33.976   4.056   4.959  1.00 20.00     0.033 C 
HETATM    2  C2  UNL     1     -35.700   5.488   3.818  1.00 20.00     0.033 C 
HETATM    3  C4  UNL     1     -34.205   5.307   4.104  1.00 20.00     0.042 C 
HETATM    4 CL6  UNL     1     -33.378   5.040   2.518  1.00 20.00    -0.119 Cl
ENDROOT
BRANCH   3   5
HETATM    5  C3  UNL     1     -33.579   6.563   4.734  1.00 20.00     0.139 C 
HETATM    6 CL5  UNL     1     -34.231   6.954   6.347  1.00 20.00    -0.129 Cl
ENDBRANCH   3   5
TORSDOF 1
