REMARK  1 active torsions:
REMARK  status: ('A' for Active; 'I' for Inactive)
REMARK    1  A    between atoms: C1_1  and  C2_2 
ROOT
HETATM    1  C1  UNL     1     -32.863   6.686   3.464  1.00 20.00    -0.005 C 
HETATM    2  C3  UNL     1     -34.042   6.898   4.066  1.00 20.00    -0.031 C 
HETATM    3  C5  UNL     1     -34.361   6.435   5.449  1.00 20.00     0.036 C 
ENDROOT
BRANCH   1   4
HETATM    4  C2  UNL     1     -32.566   7.139   2.124  1.00 20.00    -0.005 C 
HETATM    5  C4  UNL     1     -32.956   8.332   1.650  1.00 20.00    -0.031 C 
HETATM    6  C6  UNL     1     -32.656   8.812   0.268  1.00 20.00     0.036 C 
ENDBRANCH   1   4
TORSDOF 1
