REMARK  1 active torsions:
REMARK  status: ('A' for Active; 'I' for Inactive)
REMARK    1  A    between atoms: C4_4  and  C9_9 
ROOT
HETATM    1  C1  UNL     1     -34.473   4.432   5.250  1.00 20.00    -0.025 C 
HETATM    2  C2  UNL     1     -34.131   3.787   4.124  1.00 20.00    -0.025 C 
HETATM    3  C5  UNL     1     -35.358   5.636   3.490  1.00 20.00     0.017 C 
HETATM    4  C6  UNL     1     -33.409   6.540   4.500  1.00 20.00     0.017 C 
HETATM    5  C7  UNL     1     -34.751   5.870   4.874  1.00 20.00     0.009 C 
HETATM    6  C8  UNL     1     -34.167   4.800   3.002  1.00 20.00     0.016 C 
HETATM    7  C9  UNL     1     -32.981   5.763   3.227  1.00 20.00     0.015 C 
ENDROOT
BRANCH   7   8
HETATM    8  C4  UNL     1     -32.744   6.669   2.059  1.00 20.00    -0.031 C 
HETATM    9  C3  UNL     1     -33.359   7.845   1.887  1.00 20.00     0.007 C 
ENDBRANCH   7   8
TORSDOF 1
