REMARK  2 active torsions:
REMARK  status: ('A' for Active; 'I' for Inactive)
REMARK    1  A    between atoms: C1_1  and  C3_3 
REMARK    2  A    between atoms: C2_2  and  C3_3 
ROOT
HETATM    1  C3  UNL     1     -33.312   6.775   3.334  1.00 20.00     0.109 C 
HETATM    2 CL6  UNL     1     -32.141   7.156   2.025  1.00 20.00    -0.123 Cl
ENDROOT
BRANCH   1   3
HETATM    3  C1  UNL     1     -32.785   7.300   4.674  1.00 20.00     0.135 C 
HETATM    4 CL4  UNL     1     -33.910   7.045   6.031  1.00 20.00    -0.129 Cl
ENDBRANCH   1   3
BRANCH   1   5
HETATM    5  C2  UNL     1     -33.630   5.280   3.285  1.00 20.00     0.135 C 
HETATM    6 CL5  UNL     1     -35.228   4.917   3.981  1.00 20.00    -0.129 Cl
ENDBRANCH   1   5
TORSDOF 2
