REMARK  1 active torsions:
REMARK  status: ('A' for Active; 'I' for Inactive)
REMARK    1  A    between atoms: C5_5  and  S6_6 
ROOT
HETATM    1  C1  UNL     1     -34.138   4.046   4.100  1.00 20.00     0.026 C 
HETATM    2  C2  UNL     1     -34.862   5.121   6.254  1.00 20.00     0.026 C 
HETATM    3  C3  UNL     1     -35.916   5.825   4.083  1.00 20.00     0.026 C 
HETATM    4  C5  UNL     1     -34.629   5.340   4.756  1.00 20.00    -0.003 C 
ENDROOT
BRANCH   4   5
HETATM    5  S6  UNL     1     -33.338   6.628   4.554  1.00 20.00    -0.165 SA
HETATM    6  C4  UNL     1     -33.295   6.648   2.750  1.00 20.00     0.090 C 
ENDBRANCH   4   5
TORSDOF 1
