REMARK  3 active torsions:
REMARK  status: ('A' for Active; 'I' for Inactive)
REMARK    1  A    between atoms: C3_3  and  C8_8 
REMARK    2  A    between atoms: C6_6  and  C7_7 
REMARK    3  A    between atoms: C7_7  and  C8_8 
ROOT
HETATM    1  C5  UNL     1     -33.792   4.802   2.783  1.00 20.00     0.010 C 
HETATM    2  C8  UNL     1     -34.012   6.112   3.543  1.00 20.00    -0.014 C 
ENDROOT
BRANCH   2   3
HETATM    3  C3  UNL     1     -34.573   5.812   4.935  1.00 20.00    -0.011 A 
HETATM    4  C1  UNL     1     -33.767   5.011   5.920  1.00 20.00     0.005 A 
HETATM    5  C2  UNL     1     -33.986   6.481   6.147  1.00 20.00     0.005 A 
ENDBRANCH   2   3
BRANCH   2   6
HETATM    6  C7  UNL     1     -32.722   6.943   3.667  1.00 20.00     0.004 C 
BRANCH   6   7
HETATM    7  C6  UNL     1     -32.125   7.347   2.317  1.00 20.00    -0.004 C 
HETATM    8  C4  UNL     1     -33.126   8.127   1.479  1.00 20.00     0.005 C 
ENDBRANCH   6   7
ENDBRANCH   2   6
TORSDOF 3
