REMARK  1 active torsions:
REMARK  status: ('A' for Active; 'I' for Inactive)
REMARK    1  A    between atoms: C1_1  and  N7_7 
ROOT
HETATM    1  C2  UNL     1     -34.937   5.314   6.125  1.00 20.00     0.003 C 
HETATM    2  C3  UNL     1     -34.754   4.255   5.037  1.00 20.00     0.020 C 
HETATM    3  C4  UNL     1     -33.985   6.491   5.909  1.00 20.00     0.020 C 
HETATM    4  C5  UNL     1     -34.887   4.865   3.645  1.00 20.00     0.123 C 
HETATM    5  C6  UNL     1     -34.128   7.068   4.504  1.00 20.00     0.123 C 
HETATM    6  N7  UNL     1     -34.011   6.021   3.496  1.00 20.00    -0.381 N 
ENDROOT
BRANCH   6   7
HETATM    7  C1  UNL     1     -33.178   6.148   2.434  1.00 20.00     0.168 C 
HETATM    8  S8  UNL     1     -32.159   7.447   2.222  1.00 20.00    -0.074 SA
ENDBRANCH   6   7
TORSDOF 1
