REMARK  0 active torsions:
REMARK  status: ('A' for Active; 'I' for Inactive)
ROOT
HETATM    1  C1  UNL     1     -33.041   7.191   2.510  1.00 20.00     0.064 C 
HETATM    2  C2  UNL     1     -35.077   5.208   5.759  1.00 20.00     0.005 C 
HETATM    3  C3  UNL     1     -34.258   3.941   3.766  1.00 20.00     0.005 C 
HETATM    4  C4  UNL     1     -33.655   5.740   5.991  1.00 20.00     0.006 C 
HETATM    5  C5  UNL     1     -32.847   4.502   3.987  1.00 20.00     0.006 C 
HETATM    6  C6  UNL     1     -35.137   6.262   3.486  1.00 20.00     0.024 C 
HETATM    7  C7  UNL     1     -33.744   6.865   3.763  1.00 20.00     0.097 C 
HETATM    8  C8  UNL     1     -35.312   4.943   4.262  1.00 20.00    -0.013 C 
HETATM    9  C9  UNL     1     -32.921   5.894   4.644  1.00 20.00     0.003 C 
HETATM   10  N10 UNL     1     -32.487   7.448   1.524  1.00 20.00    -0.197 NA
ENDROOT
TORSDOF 0
