REMARK  0 active torsions:
REMARK  status: ('A' for Active; 'I' for Inactive)
ROOT
HETATM    1  C1  UNL     1     -33.320   6.625   3.867  1.00 20.00     0.111 C 
HETATM    2  C2  UNL     1     -33.961   7.081   6.145  1.00 20.00     0.049 C 
HETATM    3  C3  UNL     1     -34.044   6.320   5.049  1.00 20.00     0.104 C 
HETATM    4  N4  UNL     1     -32.729   6.873   2.899  1.00 20.00    -0.190 NA
HETATM    5 CL5  UNL     1     -35.050   4.919   5.021  1.00 20.00    -0.073 Cl
ENDROOT
TORSDOF 0
