REMARK  1 active torsions:
REMARK  status: ('A' for Active; 'I' for Inactive)
REMARK    1  A    between atoms: C7_7  and  O12_12 
ROOT
HETATM    1  C1  UNL     1     -33.292   9.269  -1.007  1.00 20.00     0.015 C 
HETATM    2  C2  UNL     1     -33.237   8.860   0.120  1.00 20.00    -0.079 C 
HETATM    3  C3  UNL     1     -31.733   8.499   2.035  1.00 20.00     0.055 C 
HETATM    4  C4  UNL     1     -32.004   6.389   3.436  1.00 20.00     0.013 C 
HETATM    5  C5  UNL     1     -33.624   6.885   1.533  1.00 20.00     0.060 C 
HETATM    6  C6  UNL     1     -31.474   7.831   3.394  1.00 20.00    -0.014 C 
HETATM    7  C7  UNL     1     -33.169   8.355   1.508  1.00 20.00     0.121 C 
HETATM    8  C8  UNL     1     -33.429   6.152   2.884  1.00 20.00    -0.044 C 
HETATM    9  C9  UNL     1     -31.921   8.688   4.579  1.00 20.00     0.010 C 
HETATM   10  C10 UNL     1     -33.599   4.633   2.634  1.00 20.00     0.015 C 
HETATM   11  C11 UNL     1     -34.512   6.543   3.906  1.00 20.00     0.015 C 
ENDROOT
BRANCH   7  12
HETATM   12  O12 UNL     1     -34.062   9.134   2.295  1.00 20.00    -0.378 OA
HETATM   13  H30 UNL     1     -33.753  10.049   2.229  1.00 20.00     0.211 HD
ENDBRANCH   7  12
TORSDOF 1
