REMARK  1 active torsions:
REMARK  status: ('A' for Active; 'I' for Inactive)
REMARK    1  A    between atoms: C1_1  and  C3_3 
ROOT
HETATM    1  C2  UNL     1     -34.765   5.280   6.137  1.00 20.00     0.208 A 
HETATM    2  C3  UNL     1     -34.688   6.030   4.832  1.00 20.00     0.206 A 
HETATM    3  O5  UNL     1     -33.990   6.477   6.005  1.00 20.00    -0.374 OA
ENDROOT
BRANCH   2   4
HETATM    4  C1  UNL     1     -33.799   5.568   3.767  1.00 20.00     0.265 C 
HETATM    5  O4  UNL     1     -33.223   6.324   2.993  1.00 20.00    -0.304 OA
ENDBRANCH   2   4
TORSDOF 1
