REMARK  4 active torsions:
REMARK  status: ('A' for Active; 'I' for Inactive)
REMARK    1  A    between atoms: C1_1  and  C9_9 
REMARK    2  A    between atoms: C2_2  and  C7_7 
REMARK    3  A    between atoms: C2_2  and  C9_9 
REMARK    4  A    between atoms: C7_7  and  C8_8 
ROOT
HETATM    1  C5  UNL     1     -34.315   4.136   4.121  1.00 20.00     0.031 C 
HETATM    2  C6  UNL     1     -35.670   6.129   3.453  1.00 20.00     0.031 C 
HETATM    3  C9  UNL     1     -34.294   5.662   3.958  1.00 20.00     0.073 C 
ENDROOT
BRANCH   3   4
HETATM    4  C1  UNL     1     -34.031   6.381   5.294  1.00 20.00     0.138 C 
HETATM    5  C3  UNL     1     -32.805   7.253   5.419  1.00 20.00     0.092 C 
HETATM    6  O10 UNL     1     -34.778   6.226   6.263  1.00 20.00    -0.297 OA
ENDBRANCH   3   4
BRANCH   3   7
HETATM    7  C2  UNL     1     -33.214   6.027   2.912  1.00 20.00     0.142 C 
HETATM    8  O11 UNL     1     -32.493   5.169   2.401  1.00 20.00    -0.297 OA
BRANCH   7   9
HETATM    9  C7  UNL     1     -33.062   7.502   2.549  1.00 20.00     0.079 C 
BRANCH   9  10
HETATM   10  C8  UNL     1     -33.314   7.792   1.071  1.00 20.00     0.003 C 
HETATM   11  C4  UNL     1     -33.092   9.256   0.718  1.00 20.00     0.005 C 
ENDBRANCH   9  10
ENDBRANCH   7   9
ENDBRANCH   3   7
TORSDOF 4
