REMARK  3 active torsions:
REMARK  status: ('A' for Active; 'I' for Inactive)
REMARK    1  A    between atoms: C2_2  and  C6_6 
REMARK    2  A    between atoms: C2_2  and  C7_7 
REMARK    3  A    between atoms: C6_6  and  C8_8 
ROOT
HETATM    1  C6  UNL     1     -32.965   5.572   4.399  1.00 20.00     0.042 C 
ENDROOT
BRANCH   1   2
HETATM    2  C2  UNL     1     -33.102   6.101   2.984  1.00 20.00    -0.075 C 
HETATM    3  C1  UNL     1     -33.480   5.298   1.976  1.00 20.00     0.015 C 
BRANCH   2   4
HETATM    4  C7  UNL     1     -32.749   7.539   2.725  1.00 20.00     0.147 C 
HETATM    5 CL9  UNL     1     -32.937   7.927   0.999  1.00 20.00    -0.126 Cl
ENDBRANCH   2   4
ENDBRANCH   1   2
BRANCH   1   6
HETATM    6  C8  UNL     1     -34.200   5.701   5.339  1.00 20.00    -0.048 C 
HETATM    7  C3  UNL     1     -34.200   4.607   6.420  1.00 20.00     0.015 C 
HETATM    8  C4  UNL     1     -34.121   7.073   6.039  1.00 20.00     0.015 C 
HETATM    9  C5  UNL     1     -35.524   5.633   4.560  1.00 20.00     0.015 C 
ENDBRANCH   1   6
TORSDOF 3
