REMARK  1 active torsions:
REMARK  status: ('A' for Active; 'I' for Inactive)
REMARK    1  A    between atoms: C1_1  and  C4_4 
REMARK       I    between atoms: C1_1  and  N5_5 
ROOT
HETATM    1  C1  UNL     1     -33.600   6.527   4.435  1.00 20.00     0.326 C 
HETATM    2  C2  UNL     1     -32.769   7.085   2.103  1.00 20.00     0.152 C 
HETATM    3  C3  UNL     1     -31.572   7.885   4.101  1.00 20.00     0.152 C 
HETATM    4  N5  UNL     1     -32.697   7.132   3.561  1.00 20.00    -0.353 N 
HETATM    5  O6  UNL     1     -33.868   6.963   5.558  1.00 20.00    -0.263 OA
ENDROOT
BRANCH   1   6
HETATM    6  C4  UNL     1     -34.277   5.270   3.961  1.00 20.00     0.472 C 
HETATM    7  F7  UNL     1     -33.886   4.910   2.712  1.00 20.00    -0.162 F 
HETATM    8  F8  UNL     1     -34.042   4.215   4.781  1.00 20.00    -0.162 F 
HETATM    9  F9  UNL     1     -35.627   5.418   3.909  1.00 20.00    -0.162 F 
ENDBRANCH   1   6
TORSDOF 1
