REMARK  3 active torsions:
REMARK  status: ('A' for Active; 'I' for Inactive)
REMARK    1  A    between atoms: C6_6  and  C7_7 
REMARK    2  A    between atoms: C6_6  and  C8_8 
REMARK    3  A    between atoms: C7_7  and  C9_9 
ROOT
HETATM    1  C7  UNL     1     -33.646   6.800   3.418  1.00 20.00     0.008 C 
ENDROOT
BRANCH   1   2
HETATM    2  C6  UNL     1     -32.777   6.667   2.158  1.00 20.00     0.004 C 
BRANCH   2   3
HETATM    3  C8  UNL     1     -32.145   8.002   1.711  1.00 20.00    -0.023 C 
HETATM    4  C1  UNL     1     -33.193   9.066   1.385  1.00 20.00     0.009 C 
HETATM    5  C2  UNL     1     -31.251   7.768   0.491  1.00 20.00     0.009 C 
ENDBRANCH   2   3
ENDBRANCH   1   2
BRANCH   1   6
HETATM    6  C9  UNL     1     -34.271   5.480   3.947  1.00 20.00    -0.051 C 
HETATM    7  C3  UNL     1     -35.804   5.578   4.015  1.00 20.00     0.014 C 
HETATM    8  C4  UNL     1     -33.733   5.232   5.370  1.00 20.00     0.014 C 
HETATM    9  C5  UNL     1     -33.878   4.283   3.065  1.00 20.00     0.014 C 
ENDBRANCH   1   6
TORSDOF 3
