REMARK  2 active torsions:
REMARK  status: ('A' for Active; 'I' for Inactive)
REMARK    1  A    between atoms: C6_6  and  C11_11 
REMARK    2  A    between atoms: C11_11  and  O12_12 
ROOT
HETATM    1  C1  UNL     1     -32.520   6.879   1.145  1.00 20.00    -0.024 C 
HETATM    2  C2  UNL     1     -32.593   8.215   1.015  1.00 20.00    -0.087 C 
HETATM    3  C3  UNL     1     -32.973   6.136   2.367  1.00 20.00     0.035 C 
HETATM    4  C4  UNL     1     -33.177   9.091   2.095  1.00 20.00     0.034 C 
HETATM    5  C5  UNL     1     -33.946   8.315   3.169  1.00 20.00     0.012 C 
HETATM    6  C6  UNL     1     -33.191   7.048   3.585  1.00 20.00     0.023 C 
HETATM    7  C7  UNL     1     -32.095   8.922  -0.211  1.00 20.00     0.043 C 
ENDROOT
BRANCH   6   8
HETATM    8  C11 UNL     1     -33.931   6.304   4.694  1.00 20.00     0.057 C 
HETATM    9  C8  UNL     1     -35.311   5.859   4.215  1.00 20.00     0.046 C 
HETATM   10  C9  UNL     1     -34.052   7.171   5.947  1.00 20.00     0.046 C 
BRANCH   8  11
HETATM   11  O12 UNL     1     -33.191   5.128   5.026  1.00 20.00    -0.385 OA
HETATM   12  C10 UNL     1     -33.831   4.391   6.055  1.00 20.00     0.202 C 
ENDBRANCH   8  11
ENDBRANCH   6   8
TORSDOF 2
