REMARK  2 active torsions:
REMARK  status: ('A' for Active; 'I' for Inactive)
REMARK    1  A    between atoms: C1_1  and  C3_3 
REMARK    2  A    between atoms: C2_2  and  C4_4 
ROOT
HETATM    1  C1  UNL     1     -33.198   6.714   3.558  1.00 20.00    -0.015 C 
HETATM    2  C2  UNL     1     -33.317   7.009   4.861  1.00 20.00    -0.015 C 
ENDROOT
BRANCH   1   3
HETATM    3  C3  UNL     1     -32.153   7.303   2.669  1.00 20.00     0.141 C 
HETATM    4 CL5  UNL     1     -32.922   8.193   1.338  1.00 20.00    -0.126 Cl
ENDBRANCH   1   3
BRANCH   2   5
HETATM    5  C4  UNL     1     -34.374   6.434   5.746  1.00 20.00     0.141 C 
HETATM    6 CL6  UNL     1     -34.801   4.800   5.195  1.00 20.00    -0.126 Cl
ENDBRANCH   2   5
TORSDOF 2
