REMARK  1 active torsions:
REMARK  status: ('A' for Active; 'I' for Inactive)
REMARK    1  A    between atoms: C7_7  and  C8_8 
ROOT
HETATM    1  C1  UNL     1     -34.722   5.720   5.389  1.00 20.00     0.064 C 
HETATM    2  C2  UNL     1     -33.625   4.609   1.897  1.00 20.00     0.002 C 
HETATM    3  C3  UNL     1     -33.865   4.534   3.403  1.00 20.00     0.019 C 
HETATM    4  C4  UNL     1     -32.848   5.865   1.513  1.00 20.00     0.005 C 
HETATM    5  C5  UNL     1     -33.773   7.056   3.541  1.00 20.00     0.024 C 
HETATM    6  C6  UNL     1     -34.560   5.795   3.927  1.00 20.00     0.093 C 
HETATM    7  C7  UNL     1     -33.537   7.136   2.026  1.00 20.00    -0.003 C 
HETATM    8  N9  UNL     1     -34.849   5.661   6.541  1.00 20.00    -0.197 NA
ENDROOT
BRANCH   7   9
HETATM    9  C8  UNL     1     -32.716   8.374   1.672  1.00 20.00     0.089 C 
HETATM   10 BR10 UNL     1     -33.007   8.830  -0.190  1.00 20.00    -0.096 Br
ENDBRANCH   7   9
TORSDOF 1
