REMARK  2 active torsions:
REMARK  status: ('A' for Active; 'I' for Inactive)
REMARK    1  A    between atoms: C1_1  and  C8_8 
REMARK    2  A    between atoms: C8_8  and  O10_10 
ROOT
HETATM    1  C1  UNL     1     -33.069   7.643   2.509  1.00 20.00    -0.069 C 
HETATM    2  C2  UNL     1     -33.160   8.235   1.468  1.00 20.00    -0.108 C 
HETATM    3  C9  UNL     1     -33.273   8.956   0.200  1.00 20.00     0.112 C 
ENDROOT
BRANCH   1   4
HETATM    4  C8  UNL     1     -32.956   6.916   3.786  1.00 20.00     0.121 C 
HETATM    5  C6  UNL     1     -34.339   6.736   4.433  1.00 20.00     0.051 C 
HETATM    6  C4  UNL     1     -35.212   5.718   3.700  1.00 20.00     0.004 C 
HETATM    7  C3  UNL     1     -34.497   4.380   3.533  1.00 20.00     0.000 C 
HETATM    8  C5  UNL     1     -33.142   4.545   2.851  1.00 20.00     0.004 C 
HETATM    9  C7  UNL     1     -32.263   5.560   3.581  1.00 20.00     0.051 C 
BRANCH   4  10
HETATM   10  O10 UNL     1     -32.149   7.709   4.659  1.00 20.00    -0.378 OA
HETATM   11  H24 UNL     1     -32.085   7.218   5.492  1.00 20.00     0.211 HD
ENDBRANCH   4  10
ENDBRANCH   1   4
TORSDOF 2
