REMARK  2 active torsions:
REMARK  status: ('A' for Active; 'I' for Inactive)
REMARK    1  A    between atoms: C1_1  and  C6_6 
REMARK    2  A    between atoms: C5_5  and  C10_10 
ROOT
HETATM    1  C2  UNL     1     -32.894   5.666   2.149  1.00 20.00     0.006 C 
HETATM    2  C3  UNL     1     -33.403   4.884   3.362  1.00 20.00     0.016 C 
HETATM    3  C4  UNL     1     -34.198   7.201   3.415  1.00 20.00     0.021 C 
HETATM    4  C5  UNL     1     -32.910   7.124   2.596  1.00 20.00    -0.010 C 
HETATM    5  C6  UNL     1     -34.201   5.890   4.218  1.00 20.00     0.010 C 
HETATM    6  C7  UNL     1     -35.619   5.407   4.512  1.00 20.00     0.023 C 
ENDROOT
BRANCH   4   7
HETATM    7  C10 UNL     1     -32.881   8.104   1.435  1.00 20.00    -0.019 C 
HETATM    8  C8  UNL     1     -32.935   9.547   1.939  1.00 20.00     0.010 C 
HETATM    9  C9  UNL     1     -31.636   7.890   0.572  1.00 20.00     0.010 C 
ENDBRANCH   4   7
BRANCH   5  10
HETATM   10  C1  UNL     1     -33.514   6.095   5.544  1.00 20.00     0.240 C 
HETATM   11  O11 UNL     1     -33.103   7.184   5.931  1.00 20.00    -0.306 OA
ENDBRANCH   5  10
TORSDOF 2
