REMARK  4 active torsions:
REMARK  status: ('A' for Active; 'I' for Inactive)
REMARK    1  A    between atoms: C2_2  and  C5_5 
REMARK    2  A    between atoms: C4_4  and  C6_6 
REMARK    3  A    between atoms: C5_5  and  O8_8 
REMARK    4  A    between atoms: C6_6  and  O8_8 
ROOT
HETATM    1  O8  UNL     1     -32.974   6.262   2.438  1.00 20.00    -0.383 OA
ENDROOT
BRANCH   1   2
HETATM    2  C5  UNL     1     -33.437   6.640   3.727  1.00 20.00     0.218 C 
BRANCH   2   3
HETATM    3  C2  UNL     1     -34.200   5.508   4.337  1.00 20.00     0.026 C 
HETATM    4  C1  UNL     1     -34.396   4.327   3.740  1.00 20.00     0.034 C 
HETATM    5 CL9  UNL     1     -34.889   5.814   5.896  1.00 20.00    -0.088 Cl
ENDBRANCH   2   3
ENDBRANCH   1   2
BRANCH   1   6
HETATM    6  C6  UNL     1     -32.241   7.311   1.819  1.00 20.00     0.202 C 
BRANCH   6   7
HETATM    7  C4  UNL     1     -33.213   8.312   1.232  1.00 20.00     0.169 A 
HETATM    8  C3  UNL     1     -32.785   9.279   0.163  1.00 20.00     0.202 A 
HETATM    9  O7  UNL     1     -33.534   8.093  -0.146  1.00 20.00    -0.379 OA
ENDBRANCH   6   7
ENDBRANCH   1   6
TORSDOF 4
