REMARK  2 active torsions:
REMARK  status: ('A' for Active; 'I' for Inactive)
REMARK    1  A    between atoms: C5_5  and  C9_9 
REMARK    2  A    between atoms: C9_9  and  O10_10 
ROOT
HETATM    1  C1  UNL     1     -33.198   8.389   3.268  1.00 20.00    -0.024 C 
HETATM    2  C2  UNL     1     -33.094   7.573   2.213  1.00 20.00    -0.087 C 
HETATM    3  C3  UNL     1     -33.642   7.658   4.492  1.00 20.00     0.035 C 
HETATM    4  C4  UNL     1     -33.449   6.163   2.569  1.00 20.00     0.041 C 
HETATM    5  C5  UNL     1     -33.413   6.192   4.104  1.00 20.00     0.026 C 
HETATM    6  C6  UNL     1     -32.720   7.948   0.825  1.00 20.00     0.043 C 
ENDROOT
BRANCH   5   7
HETATM    7  C9  UNL     1     -34.413   5.242   4.743  1.00 20.00     0.055 C 
HETATM    8  C7  UNL     1     -34.334   5.312   6.269  1.00 20.00     0.045 C 
HETATM    9  C8  UNL     1     -34.192   3.804   4.266  1.00 20.00     0.045 C 
BRANCH   7  10
HETATM   10  O10 UNL     1     -35.735   5.641   4.367  1.00 20.00    -0.390 OA
HETATM   11  H26 UNL     1     -36.338   5.014   4.792  1.00 20.00     0.210 HD
ENDBRANCH   7  10
ENDBRANCH   5   7
TORSDOF 2
