REMARK  0 active torsions:
REMARK  status: ('A' for Active; 'I' for Inactive)
ROOT
HETATM    1  C1  UNL     1     -34.748   6.532   6.330  1.00 20.00     0.005 C 
HETATM    2  C2  UNL     1     -33.240   6.252   6.297  1.00 20.00     0.008 C 
HETATM    3  C3  UNL     1     -34.368   4.305   5.582  1.00 20.00     0.012 C 
HETATM    4  C4  UNL     1     -34.970   5.913   3.910  1.00 20.00     0.047 C 
HETATM    5  C5  UNL     1     -35.313   5.485   5.355  1.00 20.00    -0.011 C 
HETATM    6  C6  UNL     1     -33.116   5.128   5.245  1.00 20.00     0.025 C 
HETATM    7  C7  UNL     1     -33.452   5.637   3.818  1.00 20.00     0.117 C 
HETATM    8 CL8  UNL     1     -32.532   7.082   3.335  1.00 20.00    -0.101 Cl
HETATM    9 CL9  UNL     1     -33.121   4.353   2.605  1.00 20.00    -0.101 Cl
ENDROOT
TORSDOF 0
