REMARK  0 active torsions:
REMARK  status: ('A' for Active; 'I' for Inactive)
ROOT
HETATM    1  C1  UNL     1     -34.211   5.105   6.029  1.00 20.00     0.005 C 
HETATM    2  C2  UNL     1     -34.357   6.621   5.842  1.00 20.00     0.008 C 
HETATM    3  C3  UNL     1     -35.585   5.547   4.137  1.00 20.00     0.012 C 
HETATM    4  C4  UNL     1     -33.336   4.848   3.694  1.00 20.00     0.047 C 
HETATM    5  C5  UNL     1     -34.531   4.555   4.628  1.00 20.00    -0.011 C 
HETATM    6  C6  UNL     1     -34.665   6.760   4.336  1.00 20.00     0.025 C 
HETATM    7  C7  UNL     1     -33.444   6.372   3.461  1.00 20.00     0.117 C 
HETATM    8 CL8  UNL     1     -33.782   6.719   1.730  1.00 20.00    -0.101 Cl
HETATM    9 CL9  UNL     1     -31.945   7.228   3.898  1.00 20.00    -0.101 Cl
ENDROOT
TORSDOF 0
