REMARK  1 active torsions:
REMARK  status: ('A' for Active; 'I' for Inactive)
REMARK    1  A    between atoms: C1_1  and  O7_7 
ROOT
HETATM    1  C1  UNL     1     -33.961   5.835   4.204  1.00 20.00     0.294 A 
HETATM    2  C2  UNL     1     -34.396   5.886   5.653  1.00 20.00     0.106 A 
HETATM    3  C3  UNL     1     -34.334   4.636   6.472  1.00 20.00     0.051 C 
HETATM    4  C4  UNL     1     -34.415   7.180   6.403  1.00 20.00     0.051 C 
HETATM    5  O6  UNL     1     -35.347   5.828   4.581  1.00 20.00    -0.343 OA
ENDROOT
BRANCH   1   6
HETATM    6  O7  UNL     1     -33.477   7.052   3.616  1.00 20.00    -0.363 OA
HETATM    7  C5  UNL     1     -32.129   7.291   3.981  1.00 20.00     0.204 C 
ENDBRANCH   1   6
TORSDOF 1
