REMARK  1 active torsions:
REMARK  status: ('A' for Active; 'I' for Inactive)
REMARK    1  A    between atoms: C1_1  and  C8_8 
ROOT
HETATM    1  C1  UNL     1     -32.922   7.425   1.986  1.00 20.00     0.139 C 
HETATM    2  C2  UNL     1     -32.777   6.396   3.913  1.00 20.00     0.209 C 
HETATM    3  C3  UNL     1     -33.659   5.615   2.944  1.00 20.00     0.070 C 
HETATM    4  C4  UNL     1     -32.968   4.344   2.443  1.00 20.00     0.042 C 
HETATM    5  C5  UNL     1     -35.020   5.283   3.546  1.00 20.00     0.042 C 
HETATM    6  N9  UNL     1     -33.836   6.528   1.798  1.00 20.00    -0.258 NA
HETATM    7  O10 UNL     1     -32.157   7.383   3.099  1.00 20.00    -0.335 OA
ENDROOT
BRANCH   1   8
HETATM    8  C8  UNL     1     -32.623   8.549   1.064  1.00 20.00     0.054 C 
HETATM    9  C6  UNL     1     -32.174   8.025  -0.303  1.00 20.00     0.018 C 
HETATM   10  C7  UNL     1     -33.831   9.477   0.908  1.00 20.00     0.018 C 
ENDBRANCH   1   8
TORSDOF 1
