REMARK  1 active torsions:
REMARK  status: ('A' for Active; 'I' for Inactive)
REMARK    1  A    between atoms: C5_5  and  C6_6 
ROOT
HETATM    1  C1  UNL     1     -35.008   4.881   6.312  1.00 20.00     0.086 C 
HETATM    2  C2  UNL     1     -35.695   4.278   5.106  1.00 20.00     0.086 C 
HETATM    3  C5  UNL     1     -34.325   6.453   4.188  1.00 20.00     0.078 C 
HETATM    4  C7  UNL     1     -34.585   7.948   4.364  1.00 20.00     0.041 C 
HETATM    5  S9  UNL     1     -33.560   5.790   5.717  1.00 20.00    -0.145 SA
HETATM    6  S10 UNL     1     -35.922   5.601   3.892  1.00 20.00    -0.145 SA
ENDROOT
BRANCH   3   7
HETATM    7  C6  UNL     1     -33.388   6.188   3.010  1.00 20.00     0.078 C 
HETATM    8  C8  UNL     1     -33.128   4.692   2.834  1.00 20.00     0.041 C 
HETATM    9  S11 UNL     1     -31.796   7.045   3.311  1.00 20.00    -0.145 SA
HETATM   10  C3  UNL     1     -31.666   7.846   1.693  1.00 20.00     0.086 C 
HETATM   11  C4  UNL     1     -33.058   8.276   1.285  1.00 20.00     0.086 C 
HETATM   12  S12 UNL     1     -34.148   6.844   1.476  1.00 20.00    -0.145 SA
ENDBRANCH   3   7
TORSDOF 1
