REMARK  2 active torsions:
REMARK  status: ('A' for Active; 'I' for Inactive)
REMARK    1  A    between atoms: C9_9  and  C11_11 
REMARK    2  A    between atoms: C10_10  and  C11_11 
ROOT
HETATM    1  C6  UNL     1     -36.942   3.844   4.405  1.00 20.00     0.207 A 
HETATM    2  C11 UNL     1     -35.878   4.900   4.581  1.00 20.00     0.089 A 
HETATM    3  O12 UNL     1     -36.943   4.742   5.526  1.00 20.00    -0.374 OA
ENDROOT
BRANCH   2   4
HETATM    4  C9  UNL     1     -35.915   6.181   3.781  1.00 20.00     0.023 C 
HETATM    5  C2  UNL     1     -35.388   7.327   4.665  1.00 20.00     0.012 C 
HETATM    6  C7  UNL     1     -33.960   7.006   5.152  1.00 20.00    -0.013 C 
HETATM    7  C1  UNL     1     -33.038   6.822   3.935  1.00 20.00     0.009 C 
HETATM    8  C3  UNL     1     -33.988   5.699   5.971  1.00 20.00     0.012 C 
HETATM    9  C8  UNL     1     -33.550   5.673   3.050  1.00 20.00    -0.013 C 
HETATM   10  C4  UNL     1     -34.980   6.002   2.568  1.00 20.00     0.012 C 
HETATM   11  C5  UNL     1     -33.577   4.369   3.877  1.00 20.00     0.012 C 
HETATM   12  C10 UNL     1     -34.505   4.540   5.096  1.00 20.00     0.023 C 
ENDBRANCH   2   4
TORSDOF 2
