REMARK  0 active torsions:
REMARK  status: ('A' for Active; 'I' for Inactive)
ROOT
HETATM    1  C1  UNL     1     -32.718   6.641   3.857  1.00 20.00     0.223 A 
HETATM    2  C2  UNL     1     -33.677   5.262   1.917  1.00 20.00     0.027 A 
HETATM    3  C3  UNL     1     -32.599   5.490   2.934  1.00 20.00     0.089 A 
HETATM    4  C4  UNL     1     -33.729   4.532   3.249  1.00 20.00    -0.006 A 
HETATM    5  C5  UNL     1     -34.492   5.134   4.443  1.00 20.00     0.034 A 
HETATM    6  C6  UNL     1     -33.496   3.049   3.211  1.00 20.00     0.018 C 
HETATM    7  C7  UNL     1     -34.351   4.304   5.726  1.00 20.00     0.039 C 
HETATM    8  C8  UNL     1     -35.972   5.342   4.118  1.00 20.00     0.039 C 
HETATM    9  N9  UNL     1     -33.822   6.420   4.659  1.00 20.00    -0.351 N 
HETATM   10  O10 UNL     1     -31.953   7.591   3.852  1.00 20.00    -0.273 OA
HETATM   11  H23 UNL     1     -34.117   7.078   5.374  1.00 20.00     0.163 HD
ENDROOT
TORSDOF 0
