REMARK  2 active torsions:
REMARK  status: ('A' for Active; 'I' for Inactive)
REMARK    1  A    between atoms: C1_1  and  C3_3 
REMARK    2  A    between atoms: C2_2  and  C5_5 
ROOT
HETATM    1  C1  UNL     1     -32.847   6.211   2.278  1.00 20.00     0.003 C 
HETATM    2  C2  UNL     1     -33.693   6.273   3.314  1.00 20.00     0.041 C 
ENDROOT
BRANCH   1   3
HETATM    3  C3  UNL     1     -32.422   7.383   1.546  1.00 20.00    -0.004 C 
HETATM    4  C4  UNL     1     -33.248   8.393   1.235  1.00 20.00    -0.031 C 
HETATM    5  C6  UNL     1     -32.821   9.609   0.479  1.00 20.00     0.036 C 
ENDBRANCH   1   3
BRANCH   2   6
HETATM    6  C5  UNL     1     -34.072   5.025   4.004  1.00 20.00     0.258 C 
HETATM    7  O7  UNL     1     -34.842   5.020   4.957  1.00 20.00    -0.302 OA
ENDBRANCH   2   6
TORSDOF 2
