REMARK  0 active torsions:
REMARK  status: ('A' for Active; 'I' for Inactive)
ROOT
HETATM    1  C1  UNL     1     -33.194   8.002   3.433  1.00 20.00     0.053 A 
HETATM    2  C2  UNL     1     -33.408   6.907   4.164  1.00 20.00    -0.072 A 
HETATM    3  C3  UNL     1     -33.072   7.530   2.047  1.00 20.00     0.150 A 
HETATM    4  C4  UNL     1     -33.676   6.843   5.632  1.00 20.00     0.034 C 
HETATM    5  C5  UNL     1     -33.255   6.041   1.938  1.00 20.00     0.092 A 
HETATM    6  C6  UNL     1     -34.969   6.064   5.895  1.00 20.00     0.004 C 
HETATM    7  C7  UNL     1     -34.995   4.715   5.167  1.00 20.00     0.001 C 
HETATM    8  C8  UNL     1     -34.751   4.877   3.662  1.00 20.00     0.009 C 
HETATM    9  C9  UNL     1     -33.437   5.616   3.395  1.00 20.00     0.022 A 
HETATM   10  O10 UNL     1     -32.856   8.277   1.105  1.00 20.00    -0.293 OA
ENDROOT
TORSDOF 0
