REMARK  1 active torsions:
REMARK  status: ('A' for Active; 'I' for Inactive)
REMARK    1  A    between atoms: C2_2  and  C3_3 
ROOT
HETATM    1  C3  UNL     1     -34.313   5.500   4.447  1.00 20.00     0.423 C 
HETATM    2  F4  UNL     1     -33.871   5.003   3.262  1.00 20.00    -0.166 F 
HETATM    3  F5  UNL     1     -35.634   5.769   4.279  1.00 20.00    -0.166 F 
HETATM    4  F6  UNL     1     -34.240   4.487   5.349  1.00 20.00    -0.166 F 
ENDROOT
BRANCH   1   5
HETATM    5  C2  UNL     1     -33.527   6.692   4.881  1.00 20.00     0.085 C 
HETATM    6  C1  UNL     1     -33.761   7.366   6.013  1.00 20.00     0.036 C 
HETATM    7 BR7  UNL     1     -32.156   7.198   3.712  1.00 20.00    -0.047 Br
ENDBRANCH   1   5
TORSDOF 1
