REMARK  0 active torsions:
REMARK  status: ('A' for Active; 'I' for Inactive)
ROOT
HETATM    1  C1  UNL     1     -34.650   4.951   6.091  1.00 20.00     0.000 C 
HETATM    2  C2  UNL     1     -34.430   6.458   6.182  1.00 20.00     0.003 C 
HETATM    3  C3  UNL     1     -34.914   4.499   4.657  1.00 20.00     0.003 C 
HETATM    4  C4  UNL     1     -34.293   7.416   1.701  1.00 20.00     0.029 C 
HETATM    5  C5  UNL     1     -33.322   6.915   5.237  1.00 20.00     0.038 C 
HETATM    6  C6  UNL     1     -33.828   4.987   3.700  1.00 20.00     0.038 C 
HETATM    7  C7  UNL     1     -34.722   7.323   3.145  1.00 20.00     0.040 C 
HETATM    8  C8  UNL     1     -32.793   7.541   1.831  1.00 20.00     0.168 C 
HETATM    9  C9  UNL     1     -33.591   6.508   3.782  1.00 20.00     0.061 C 
HETATM   10  O10 UNL     1     -32.412   6.806   3.001  1.00 20.00    -0.380 OA
ENDROOT
TORSDOF 0
