REMARK  2 active torsions:
REMARK  status: ('A' for Active; 'I' for Inactive)
REMARK    1  A    between atoms: C1_1  and  C7_7 
REMARK       I    between atoms: C1_1  and  N9_9 
REMARK    2  A    between atoms: C7_7  and  C8_8 
ROOT
HETATM    1  C1  UNL     1     -32.814   7.596   2.593  1.00 20.00     0.219 C 
HETATM    2  C2  UNL     1     -34.974   4.938   3.931  1.00 20.00     0.021 C 
HETATM    3  C3  UNL     1     -33.844   4.115   3.326  1.00 20.00     0.021 C 
HETATM    4  C4  UNL     1     -34.350   6.318   4.073  1.00 20.00     0.126 C 
HETATM    5  C5  UNL     1     -33.187   5.094   2.363  1.00 20.00     0.126 C 
HETATM    6  N9  UNL     1     -33.402   6.403   2.971  1.00 20.00    -0.352 N 
HETATM    7  O10 UNL     1     -32.581   8.526   3.368  1.00 20.00    -0.273 OA
ENDROOT
BRANCH   1   8
HETATM    8  C7  UNL     1     -32.452   7.710   1.134  1.00 20.00     0.103 C 
BRANCH   8   9
HETATM    9  C8  UNL     1     -33.185   8.877   0.495  1.00 20.00     0.005 C 
HETATM   10  C6  UNL     1     -32.805  10.219   1.105  1.00 20.00     0.005 C 
ENDBRANCH   8   9
ENDBRANCH   1   8
TORSDOF 2
