REMARK  3 active torsions:
REMARK  status: ('A' for Active; 'I' for Inactive)
REMARK    1  A    between atoms: C1_1  and  C3_3 
REMARK    2  A    between atoms: C1_1  and  C4_4 
REMARK    3  A    between atoms: C4_4  and  C5_5 
ROOT
HETATM    1  C1  UNL     1     -34.023   5.360   3.240  1.00 20.00     0.127 C 
HETATM    2  O6  UNL     1     -33.637   4.337   2.677  1.00 20.00    -0.298 OA
ENDROOT
BRANCH   1   3
HETATM    3  C3  UNL     1     -33.266   6.674   3.139  1.00 20.00     0.074 C 
HETATM    4  C2  UNL     1     -32.520   6.822   1.825  1.00 20.00     0.013 C 
ENDBRANCH   1   3
BRANCH   1   5
HETATM    5  C4  UNL     1     -35.273   5.390   4.109  1.00 20.00     0.093 C 
BRANCH   5   6
HETATM    6  C5  UNL     1     -35.020   5.040   5.568  1.00 20.00     0.122 C 
HETATM    7 CL7  UNL     1     -33.855   6.164   6.310  1.00 20.00    -0.130 Cl
ENDBRANCH   5   6
ENDBRANCH   1   5
TORSDOF 3
