REMARK  0 active torsions:
REMARK  status: ('A' for Active; 'I' for Inactive)
ROOT
HETATM    1  C1  UNL     1     -32.971   7.077   2.701  1.00 20.00    -0.089 C 
HETATM    2  C2  UNL     1     -32.511   7.811   1.673  1.00 20.00     0.014 C 
HETATM    3  C3  UNL     1     -32.601   5.620   2.815  1.00 20.00     0.033 C 
HETATM    4  C4  UNL     1     -33.825   7.731   3.766  1.00 20.00     0.033 C 
HETATM    5  C5  UNL     1     -33.756   4.634   2.649  1.00 20.00     0.004 C 
HETATM    6  C6  UNL     1     -33.571   7.274   5.208  1.00 20.00     0.004 C 
HETATM    7  C7  UNL     1     -34.895   4.716   3.667  1.00 20.00     0.000 C 
HETATM    8  C8  UNL     1     -34.553   6.219   5.728  1.00 20.00     0.000 C 
HETATM    9  C9  UNL     1     -34.448   4.817   5.126  1.00 20.00     0.000 C 
ENDROOT
TORSDOF 0
