REMARK  2 active torsions:
REMARK  status: ('A' for Active; 'I' for Inactive)
REMARK    1  A    between atoms: C1_1  and  C2_2 
REMARK    2  A    between atoms: C3_3  and  C4_4 
ROOT
HETATM    1  C1  UNL     1     -34.438   4.546   4.091  1.00 20.00     0.051 C 
HETATM    2  C3  UNL     1     -33.661   5.053   3.120  1.00 20.00    -0.014 C 
HETATM    3  C5  UNL     1     -33.188   4.338   1.884  1.00 20.00     0.052 C 
ENDROOT
BRANCH   2   4
HETATM    4  C4  UNL     1     -33.183   6.482   3.227  1.00 20.00     0.151 C 
HETATM    5  C6  UNL     1     -32.926   7.291   1.978  1.00 20.00     0.096 C 
HETATM    6  O8  UNL     1     -33.004   6.991   4.335  1.00 20.00    -0.293 OA
ENDBRANCH   2   4
BRANCH   1   7
HETATM    7  C2  UNL     1     -34.880   5.291   5.293  1.00 20.00     0.259 C 
HETATM    8  O7  UNL     1     -34.221   5.291   6.327  1.00 20.00    -0.302 OA
ENDBRANCH   1   7
TORSDOF 2
