REMARK  3 active torsions:
REMARK  status: ('A' for Active; 'I' for Inactive)
REMARK    1  A    between atoms: C4_4  and  C10_10 
REMARK    2  A    between atoms: C5_5  and  C11_11 
REMARK    3  A    between atoms: C6_6  and  C12_12 
ROOT
HETATM    1  C7  UNL     1     -32.812   4.550   2.766  1.00 20.00     0.009 C 
HETATM    2  C8  UNL     1     -33.041   5.733   1.832  1.00 20.00     0.010 C 
HETATM    3  C9  UNL     1     -34.851   5.576   3.933  1.00 20.00     0.017 C 
HETATM    4  C10 UNL     1     -34.037   4.293   3.659  1.00 20.00     0.008 C 
HETATM    5  C11 UNL     1     -33.223   7.046   2.616  1.00 20.00     0.015 C 
HETATM    6  C12 UNL     1     -34.016   6.867   3.939  1.00 20.00     0.015 C 
ENDROOT
BRANCH   4   7
HETATM    7  C4  UNL     1     -33.631   3.591   4.922  1.00 20.00    -0.032 C 
HETATM    8  C1  UNL     1     -34.028   2.358   5.254  1.00 20.00     0.007 C 
ENDBRANCH   4   7
BRANCH   6   9
HETATM    9  C6  UNL     1     -33.115   6.916   5.142  1.00 20.00    -0.031 C 
HETATM   10  C3  UNL     1     -33.198   7.844   6.102  1.00 20.00     0.007 C 
ENDBRANCH   6   9
BRANCH   5  11
HETATM   11  C5  UNL     1     -33.877   8.073   1.735  1.00 20.00    -0.031 C 
HETATM   12  C2  UNL     1     -33.298   9.219   1.365  1.00 20.00     0.007 C 
ENDBRANCH   5  11
TORSDOF 3
