REMARK  0 active torsions:
REMARK  status: ('A' for Active; 'I' for Inactive)
ROOT
HETATM    1  C1  UNL     1     -32.901   6.253   3.500  1.00 20.00     0.131 C 
HETATM    2  C2  UNL     1     -32.833   4.756   3.738  1.00 20.00     0.079 C 
HETATM    3  C3  UNL     1     -34.188   4.055   3.665  1.00 20.00     0.012 C 
HETATM    4  C4  UNL     1     -34.332   5.937   6.299  1.00 20.00     0.001 C 
HETATM    5  C5  UNL     1     -34.124   7.216   5.486  1.00 20.00     0.012 C 
HETATM    6  C6  UNL     1     -35.407   5.014   5.726  1.00 20.00     0.005 C 
HETATM    7  C7  UNL     1     -35.384   6.240   3.536  1.00 20.00     0.016 C 
HETATM    8  C8  UNL     1     -34.139   7.002   3.970  1.00 20.00     0.056 C 
HETATM    9  C9  UNL     1     -35.382   4.864   4.196  1.00 20.00    -0.013 C 
HETATM   10  O10 UNL     1     -31.937   6.859   3.028  1.00 20.00    -0.298 OA
ENDROOT
TORSDOF 0
