REMARK  0 active torsions:
REMARK  status: ('A' for Active; 'I' for Inactive)
ROOT
HETATM    1  C1  UNL     1     -34.086   8.274   1.906  1.00 20.00     0.047 C 
HETATM    2  C2  UNL     1     -34.247   7.837   3.160  1.00 20.00    -0.014 C 
HETATM    3  C3  UNL     1     -32.895   7.880   1.117  1.00 20.00     0.149 C 
HETATM    4  C4  UNL     1     -31.900   6.932   1.742  1.00 20.00     0.084 C 
HETATM    5  C5  UNL     1     -31.860   7.102   3.255  1.00 20.00     0.021 C 
HETATM    6  C6  UNL     1     -34.759   5.694   6.191  1.00 20.00     0.000 C 
HETATM    7  C7  UNL     1     -34.963   5.231   4.754  1.00 20.00     0.001 C 
HETATM    8  C8  UNL     1     -34.352   7.161   6.256  1.00 20.00     0.001 C 
HETATM    9  C9  UNL     1     -33.723   5.494   3.897  1.00 20.00     0.013 C 
HETATM   10  C10 UNL     1     -33.123   7.448   5.390  1.00 20.00     0.013 C 
HETATM   11  C11 UNL     1     -33.255   6.971   3.920  1.00 20.00    -0.022 C 
HETATM   12  O12 UNL     1     -32.769   8.280  -0.038  1.00 20.00    -0.293 OA
ENDROOT
TORSDOF 0
