REMARK  3 active torsions:
REMARK  status: ('A' for Active; 'I' for Inactive)
REMARK    1  A    between atoms: C5_5  and  C7_7 
REMARK    2  A    between atoms: C5_5  and  C8_8 
REMARK    3  A    between atoms: C6_6  and  C8_8 
ROOT
HETATM    1  C3  UNL     1     -32.877   5.096   2.568  1.00 20.00     0.016 C 
HETATM    2  C4  UNL     1     -32.443   7.178   3.885  1.00 20.00     0.016 C 
HETATM    3  C8  UNL     1     -33.530   6.375   3.134  1.00 20.00    -0.035 C 
ENDROOT
BRANCH   3   4
HETATM    4  C5  UNL     1     -34.030   7.276   1.958  1.00 20.00     0.013 C 
BRANCH   4   5
HETATM    5  C7  UNL     1     -32.990   8.218   1.307  1.00 20.00    -0.022 C 
HETATM    6  C1  UNL     1     -31.813   7.438   0.712  1.00 20.00     0.009 C 
HETATM    7  C2  UNL     1     -33.647   9.043   0.195  1.00 20.00     0.009 C 
ENDBRANCH   4   5
ENDBRANCH   3   4
BRANCH   3   8
HETATM    8  C6  UNL     1     -34.695   6.023   4.086  1.00 20.00     0.123 C 
HETATM    9 CL9  UNL     1     -34.220   5.030   5.493  1.00 20.00    -0.130 Cl
ENDBRANCH   3   8
TORSDOF 3
