REMARK  3 active torsions:
REMARK  status: ('A' for Active; 'I' for Inactive)
REMARK    1  A    between atoms: C1_1  and  C10_10 
REMARK    2  A    between atoms: C2_2  and  C8_8 
REMARK    3  A    between atoms: C9_9  and  C10_10 
ROOT
HETATM    1  C1  UNL     1     -33.590   6.482   2.433  1.00 20.00    -0.016 C 
HETATM    2  C2  UNL     1     -32.563   7.242   1.996  1.00 20.00    -0.087 C 
HETATM    3  C3  UNL     1     -31.408   7.527   2.928  1.00 20.00     0.043 C 
ENDROOT
BRANCH   1   4
HETATM    4  C10 UNL     1     -33.845   5.799   3.776  1.00 20.00    -0.030 C 
HETATM    5  C6  UNL     1     -35.192   5.047   3.739  1.00 20.00     0.019 C 
HETATM    6  C7  UNL     1     -32.747   4.724   3.980  1.00 20.00     0.019 C 
BRANCH   4   7
HETATM    7  C9  UNL     1     -33.825   6.765   4.993  1.00 20.00     0.008 C 
HETATM    8  C5  UNL     1     -34.077   6.113   6.350  1.00 20.00     0.006 C 
ENDBRANCH   4   7
ENDBRANCH   1   4
BRANCH   2   9
HETATM    9  C8  UNL     1     -32.403   7.827   0.612  1.00 20.00     0.029 C 
HETATM   10  C4  UNL     1     -33.020   9.213   0.476  1.00 20.00     0.010 C 
ENDBRANCH   2   9
TORSDOF 3
