REMARK  2 active torsions:
REMARK  status: ('A' for Active; 'I' for Inactive)
REMARK    1  A    between atoms: C1_1  and  C2_2 
REMARK    2  A    between atoms: C1_1  and  C3_3 
ROOT
HETATM    1  C3  UNL     1     -33.843   5.440   3.371  1.00 20.00     0.321 C 
HETATM    2  F4  UNL     1     -34.832   5.851   2.534  1.00 20.00    -0.188 F 
HETATM    3  F5  UNL     1     -33.270   6.566   3.868  1.00 20.00    -0.188 F 
HETATM    4 CL7  UNL     1     -32.647   4.520   2.445  1.00 20.00    -0.048 Cl
ENDROOT
BRANCH   1   5
HETATM    5  C1  UNL     1     -34.465   4.638   4.507  1.00 20.00     0.112 C 
BRANCH   5   6
HETATM    6  C2  UNL     1     -35.077   5.506   5.600  1.00 20.00     0.122 C 
HETATM    7 CL6  UNL     1     -33.839   6.573   6.307  1.00 20.00    -0.130 Cl
ENDBRANCH   5   6
ENDBRANCH   1   5
TORSDOF 2
