REMARK  0 active torsions:
REMARK  status: ('A' for Active; 'I' for Inactive)
ROOT
HETATM    1  C1  UNL     1     -34.545   5.613   5.513  1.00 20.00     0.000 C 
HETATM    2  C2  UNL     1     -33.129   6.075   5.848  1.00 20.00     0.000 C 
HETATM    3  C3  UNL     1     -34.682   4.718   4.280  1.00 20.00     0.000 C 
HETATM    4  C4  UNL     1     -32.728   7.426   5.243  1.00 20.00     0.001 C 
HETATM    5  C5  UNL     1     -34.028   5.200   2.986  1.00 20.00     0.001 C 
HETATM    6  C6  UNL     1     -32.085   7.346   3.856  1.00 20.00     0.012 C 
HETATM    7  C7  UNL     1     -34.293   6.672   2.661  1.00 20.00     0.012 C 
HETATM    8  C8  UNL     1     -33.437   9.038   2.508  1.00 20.00     0.038 C 
HETATM    9  C9  UNL     1     -33.713   9.184   1.024  1.00 20.00     0.168 C 
HETATM   10  C10 UNL     1     -32.258   7.391   1.334  1.00 20.00     0.177 C 
HETATM   11  C11 UNL     1     -33.027   7.569   2.652  1.00 20.00    -0.017 C 
HETATM   12  O12 UNL     1     -32.914   8.203   0.349  1.00 20.00    -0.390 OA
ENDROOT
TORSDOF 0
