REMARK  2 active torsions:
REMARK  status: ('A' for Active; 'I' for Inactive)
REMARK    1  A    between atoms: C1_1  and  C2_2 
REMARK    2  A    between atoms: C2_2  and  C3_3 
ROOT
HETATM    1  C3  UNL     1     -34.445   5.346   4.630  1.00 20.00     0.393 C 
HETATM    2  F5  UNL     1     -34.901   5.456   5.896  1.00 20.00    -0.171 F 
HETATM    3  F6  UNL     1     -35.521   5.258   3.817  1.00 20.00    -0.171 F 
HETATM    4  F7  UNL     1     -33.761   4.187   4.527  1.00 20.00    -0.171 F 
ENDROOT
BRANCH   1   5
HETATM    5  C2  UNL     1     -33.591   6.529   4.245  1.00 20.00     0.186 C 
BRANCH   5   6
HETATM    6  C1  UNL     1     -33.071   6.448   2.831  1.00 20.00     0.239 C 
HETATM    7  O4  UNL     1     -32.861   7.415   2.106  1.00 20.00    -0.307 OA
ENDBRANCH   5   6
ENDBRANCH   1   5
TORSDOF 2
