REMARK  2 active torsions:
REMARK  status: ('A' for Active; 'I' for Inactive)
REMARK    1  A    between atoms: C1_1  and  C2_2 
REMARK    2  A    between atoms: C1_1  and  C3_3 
ROOT
HETATM    1  C1  UNL     1     -34.445   6.555   3.144  1.00 20.00     0.188 C 
ENDROOT
BRANCH   1   2
HETATM    2  C2  UNL     1     -34.727   5.819   4.438  1.00 20.00     0.361 C 
HETATM    3  F4  UNL     1     -33.969   6.351   5.430  1.00 20.00    -0.214 F 
HETATM    4  F5  UNL     1     -34.355   4.520   4.322  1.00 20.00    -0.214 F 
ENDBRANCH   1   2
BRANCH   1   5
HETATM    5  C3  UNL     1     -32.987   6.482   2.749  1.00 20.00     0.392 C 
HETATM    6  F6  UNL     1     -32.746   7.181   1.619  1.00 20.00    -0.171 F 
HETATM    7  F7  UNL     1     -32.189   6.972   3.721  1.00 20.00    -0.171 F 
HETATM    8  F8  UNL     1     -32.621   5.201   2.524  1.00 20.00    -0.171 F 
ENDBRANCH   1   5
TORSDOF 2
