REMARK  2 active torsions:
REMARK  status: ('A' for Active; 'I' for Inactive)
REMARK    1  A    between atoms: C3_3  and  C8_8 
REMARK    2  A    between atoms: C4_4  and  C7_7 
ROOT
HETATM    1  C5  UNL     1     -33.365   5.207   2.114  1.00 20.00     0.040 C 
HETATM    2  C6  UNL     1     -33.144   5.254   3.609  1.00 20.00     0.045 C 
HETATM    3  C7  UNL     1     -33.902   6.596   1.809  1.00 20.00     0.151 C 
HETATM    4  C8  UNL     1     -34.278   6.159   4.091  1.00 20.00     0.075 C 
HETATM    5  C10 UNL     1     -35.551   5.365   4.398  1.00 20.00     0.050 C 
HETATM    6  O11 UNL     1     -34.573   7.050   2.996  1.00 20.00    -0.367 OA
ENDROOT
BRANCH   3   7
HETATM    7  C4  UNL     1     -32.837   7.586   1.464  1.00 20.00    -0.065 C 
HETATM    8  C2  UNL     1     -31.799   7.824   2.280  1.00 20.00     0.016 C 
HETATM    9  C9  UNL     1     -32.995   8.299   0.154  1.00 20.00     0.045 C 
ENDBRANCH   3   7
BRANCH   4  10
HETATM   10  C3  UNL     1     -33.867   6.983   5.271  1.00 20.00     0.000 C 
HETATM   11  C1  UNL     1     -33.461   6.470   6.438  1.00 20.00     0.010 C 
ENDBRANCH   4  10
TORSDOF 2
