REMARK  0 active torsions:
REMARK  status: ('A' for Active; 'I' for Inactive)
ROOT
HETATM    1  C1  UNL     1     -34.287   4.419   5.646  1.00 20.00     0.044 C 
HETATM    2  C2  UNL     1     -35.764   5.562   3.948  1.00 20.00     0.044 C 
HETATM    3  C3  UNL     1     -34.336   5.223   4.354  1.00 20.00     0.087 C 
HETATM    4 CL4  UNL     1     -33.533   4.315   3.044  1.00 20.00    -0.107 Cl
HETATM    5 BR5  UNL     1     -33.351   6.897   4.624  1.00 20.00    -0.069 Br
ENDROOT
TORSDOF 0
