REMARK  2 active torsions:
REMARK  status: ('A' for Active; 'I' for Inactive)
REMARK    1  A    between atoms: C1_1  and  C2_2 
REMARK    2  A    between atoms: C2_2  and  C3_3 
ROOT
HETATM    1  C2  UNL     1     -34.410   5.435   4.378  1.00 20.00     0.391 C 
HETATM    2  F5  UNL     1     -34.255   4.301   5.111  1.00 20.00    -0.188 F 
HETATM    3  F6  UNL     1     -35.729   5.513   4.063  1.00 20.00    -0.188 F 
ENDROOT
BRANCH   1   4
HETATM    4  C1  UNL     1     -33.984   6.647   5.157  1.00 20.00     0.319 C 
HETATM    5  O4  UNL     1     -33.533   6.593   6.297  1.00 20.00    -0.300 OA
ENDBRANCH   1   4
BRANCH   1   6
HETATM    6  C3  UNL     1     -33.614   5.305   3.105  1.00 20.00     0.461 C 
HETATM    7  F7  UNL     1     -32.293   5.187   3.362  1.00 20.00    -0.165 F 
HETATM    8  F8  UNL     1     -33.997   4.210   2.414  1.00 20.00    -0.165 F 
HETATM    9  F9  UNL     1     -33.787   6.377   2.303  1.00 20.00    -0.165 F 
ENDBRANCH   1   6
TORSDOF 2
