REMARK  2 active torsions:
REMARK  status: ('A' for Active; 'I' for Inactive)
REMARK    1  A    between atoms: C3_3  and  C8_8 
REMARK    2  A    between atoms: C4_4  and  C7_7 
ROOT
HETATM    1  C5  UNL     1     -32.039   7.508   3.334  1.00 20.00     0.040 C 
HETATM    2  C6  UNL     1     -32.919   6.867   4.383  1.00 20.00     0.045 C 
HETATM    3  C7  UNL     1     -33.064   7.966   2.310  1.00 20.00     0.151 C 
HETATM    4  C8  UNL     1     -34.003   6.197   3.539  1.00 20.00     0.075 C 
HETATM    5  C10 UNL     1     -35.345   6.143   4.262  1.00 20.00     0.050 C 
HETATM    6  O11 UNL     1     -34.146   7.018   2.361  1.00 20.00    -0.367 OA
ENDROOT
BRANCH   3   7
HETATM    7  C4  UNL     1     -32.519   8.037   0.927  1.00 20.00    -0.065 C 
HETATM    8  C2  UNL     1     -31.228   7.790   0.660  1.00 20.00     0.016 C 
HETATM    9  C9  UNL     1     -33.497   8.400  -0.151  1.00 20.00     0.045 C 
ENDBRANCH   3   7
BRANCH   4  10
HETATM   10  C3  UNL     1     -33.608   4.819   3.094  1.00 20.00     0.000 C 
HETATM   11  C1  UNL     1     -32.536   4.554   2.341  1.00 20.00     0.010 C 
ENDBRANCH   4  10
TORSDOF 2
