REMARK  0 active torsions:
REMARK  status: ('A' for Active; 'I' for Inactive)
ROOT
HETATM    1  C1  UNL     1     -35.396   5.376   5.357  1.00 20.00    -0.030 C 
HETATM    2  C2  UNL     1     -34.689   6.283   6.058  1.00 20.00    -0.030 C 
HETATM    3  C3  UNL     1     -32.441   6.571   1.942  1.00 20.00    -0.030 C 
HETATM    4  C4  UNL     1     -33.234   5.507   2.141  1.00 20.00    -0.025 C 
HETATM    5  C5  UNL     1     -35.069   4.979   3.934  1.00 20.00     0.035 C 
HETATM    6  C6  UNL     1     -33.523   7.057   5.484  1.00 20.00     0.032 C 
HETATM    7  C7  UNL     1     -32.293   7.399   3.190  1.00 20.00     0.032 C 
HETATM    8  C8  UNL     1     -33.662   5.447   3.571  1.00 20.00     0.016 C 
HETATM    9  C9  UNL     1     -33.515   6.923   3.967  1.00 20.00     0.000 C 
ENDROOT
TORSDOF 0
