REMARK  1 active torsions:
REMARK  status: ('A' for Active; 'I' for Inactive)
REMARK    1  A    between atoms: C3_3  and  C7_7 
ROOT
HETATM    1  C1  UNL     1     -34.604   5.166   3.521  1.00 20.00     0.001 C 
HETATM    2  C2  UNL     1     -34.176   5.957   4.517  1.00 20.00    -0.083 C 
HETATM    3  C5  UNL     1     -33.808   4.940   2.273  1.00 20.00     0.196 C 
HETATM    4  C6  UNL     1     -32.862   6.681   4.399  1.00 20.00     0.069 C 
HETATM    5  C7  UNL     1     -32.330   6.714   2.958  1.00 20.00     0.148 C 
HETATM    6  C8  UNL     1     -34.951   6.157   5.782  1.00 20.00     0.043 C 
HETATM    7  O11 UNL     1     -32.462   5.421   2.358  1.00 20.00    -0.378 OA
ENDROOT
BRANCH   5   8
HETATM    8  C3  UNL     1     -32.942   7.783   2.103  1.00 20.00     0.007 C 
HETATM    9  C4  UNL     1     -32.666   8.065   0.815  1.00 20.00    -0.089 C 
HETATM   10  C9  UNL     1     -33.374   9.179   0.095  1.00 20.00     0.042 C 
HETATM   11  C10 UNL     1     -31.654   7.318  -0.006  1.00 20.00     0.042 C 
ENDBRANCH   5   8
TORSDOF 1
