REMARK  0 active torsions:
REMARK  status: ('A' for Active; 'I' for Inactive)
ROOT
HETATM    1  C1  UNL     1     -33.961   4.698   3.919  1.00 20.00     0.009 A 
HETATM    2  C2  UNL     1     -35.286   5.394   4.040  1.00 20.00     0.009 A 
HETATM    3  C3  UNL     1     -34.218   5.625   5.084  1.00 20.00    -0.048 A 
HETATM    4  C4  UNL     1     -34.416   5.011   6.443  1.00 20.00     0.015 C 
HETATM    5  C5  UNL     1     -33.518   6.956   5.095  1.00 20.00     0.015 C 
ENDROOT
TORSDOF 0
