REMARK  3 active torsions:
REMARK  status: ('A' for Active; 'I' for Inactive)
REMARK    1  A    between atoms: C1_1  and  C3_3 
REMARK    2  A    between atoms: C1_1  and  O4_4 
REMARK    3  A    between atoms: C2_2  and  O4_4 
ROOT
HETATM    1  C1  UNL     1     -33.837   7.058   3.628  1.00 20.00     0.291 C 
ENDROOT
BRANCH   1   2
HETATM    2  C3  UNL     1     -32.630   6.511   2.912  1.00 20.00     0.408 C 
HETATM    3  F7  UNL     1     -31.503   6.771   3.612  1.00 20.00    -0.169 F 
HETATM    4  F8  UNL     1     -32.491   7.068   1.690  1.00 20.00    -0.169 F 
HETATM    5  F9  UNL     1     -32.717   5.173   2.756  1.00 20.00    -0.169 F 
ENDBRANCH   1   2
BRANCH   1   6
HETATM    6  O4  UNL     1     -33.928   6.456   4.911  1.00 20.00    -0.324 OA
BRANCH   6   7
HETATM    7  C2  UNL     1     -34.485   5.150   4.862  1.00 20.00     0.500 C 
HETATM    8  F5  UNL     1     -34.968   4.819   6.083  1.00 20.00    -0.185 F 
HETATM    9  F6  UNL     1     -35.518   5.131   3.986  1.00 20.00    -0.185 F 
ENDBRANCH   6   7
ENDBRANCH   1   6
TORSDOF 3
