REMARK  2 active torsions:
REMARK  status: ('A' for Active; 'I' for Inactive)
REMARK    1  A    between atoms: C1_1  and  C6_6 
REMARK    2  A    between atoms: C6_6  and  O8_8 
ROOT
HETATM    1  C3  UNL     1     -33.055   4.199   2.434  1.00 20.00     0.054 C 
HETATM    2  C4  UNL     1     -34.445   6.041   1.453  1.00 20.00     0.054 C 
HETATM    3  C6  UNL     1     -33.480   5.661   2.572  1.00 20.00     0.112 C 
ENDROOT
BRANCH   3   4
HETATM    4  C1  UNL     1     -34.133   5.921   3.935  1.00 20.00     0.156 C 
HETATM    5  C2  UNL     1     -35.379   5.142   4.282  1.00 20.00     0.094 C 
HETATM    6  O7  UNL     1     -33.652   6.714   4.747  1.00 20.00    -0.295 OA
ENDBRANCH   3   4
BRANCH   3   7
HETATM    7  O8  UNL     1     -32.322   6.476   2.457  1.00 20.00    -0.378 OA
HETATM    8  C5  UNL     1     -32.656   7.810   2.098  1.00 20.00     0.203 C 
ENDBRANCH   3   7
TORSDOF 2
