REMARK  1 active torsions:
REMARK  status: ('A' for Active; 'I' for Inactive)
REMARK    1  A    between atoms: C4_4  and  C5_5 
ROOT
HETATM    1  C1  UNL     1     -35.852   5.564   3.806  1.00 20.00     0.015 C 
HETATM    2  C2  UNL     1     -34.163   3.863   4.512  1.00 20.00     0.015 C 
HETATM    3  C3  UNL     1     -34.764   5.758   6.046  1.00 20.00     0.015 C 
HETATM    4  C5  UNL     1     -34.536   5.355   4.580  1.00 20.00    -0.039 C 
ENDROOT
BRANCH   4   5
HETATM    5  C4  UNL     1     -33.450   6.234   3.919  1.00 20.00     0.122 C 
HETATM    6 CL6  UNL     1     -33.137   5.843   2.208  1.00 20.00    -0.130 Cl
ENDBRANCH   4   5
TORSDOF 1
