REMARK  4 active torsions:
REMARK  status: ('A' for Active; 'I' for Inactive)
REMARK    1  A    between atoms: C5_5  and  C6_6 
REMARK    2  A    between atoms: C6_6  and  C9_9 
REMARK    3  A    between atoms: C7_7  and  C8_8 
REMARK    4  A    between atoms: C7_7  and  C9_9 
ROOT
HETATM    1  C4  UNL     1     -32.251   5.637   2.474  1.00 20.00     0.010 C 
HETATM    2  C9  UNL     1     -33.386   6.646   2.686  1.00 20.00    -0.018 C 
ENDROOT
BRANCH   2   3
HETATM    3  C6  UNL     1     -33.029   7.958   1.950  1.00 20.00     0.004 C 
BRANCH   3   4
HETATM    4  C5  UNL     1     -33.284   7.910   0.441  1.00 20.00    -0.004 C 
HETATM    5  C1  UNL     1     -32.890   9.218  -0.229  1.00 20.00     0.005 C 
ENDBRANCH   3   4
ENDBRANCH   2   3
BRANCH   2   6
HETATM    6  C7  UNL     1     -33.662   6.893   4.186  1.00 20.00     0.008 C 
BRANCH   6   7
HETATM    7  C8  UNL     1     -34.125   5.668   5.003  1.00 20.00    -0.022 C 
HETATM    8  C2  UNL     1     -35.432   5.124   4.418  1.00 20.00     0.009 C 
HETATM    9  C3  UNL     1     -34.321   5.996   6.483  1.00 20.00     0.009 C 
ENDBRANCH   6   7
ENDBRANCH   2   6
TORSDOF 4
