REMARK  2 active torsions:
REMARK  status: ('A' for Active; 'I' for Inactive)
REMARK    1  A    between atoms: C1_1  and  C2_2 
REMARK    2  A    between atoms: C1_1  and  C3_3 
ROOT
HETATM    1  C1  UNL     1     -33.432   6.532   4.130  1.00 20.00     0.234 C 
ENDROOT
BRANCH   1   2
HETATM    2  C2  UNL     1     -33.501   6.127   2.675  1.00 20.00     0.396 C 
HETATM    3  F4  UNL     1     -33.062   4.864   2.492  1.00 20.00    -0.171 F 
HETATM    4  F5  UNL     1     -34.774   6.187   2.227  1.00 20.00    -0.171 F 
HETATM    5  F6  UNL     1     -32.757   6.944   1.899  1.00 20.00    -0.171 F 
ENDBRANCH   1   2
BRANCH   1   6
HETATM    6  C3  UNL     1     -34.303   5.667   5.015  1.00 20.00     0.396 C 
HETATM    7  F7  UNL     1     -34.237   6.086   6.298  1.00 20.00    -0.171 F 
HETATM    8  F8  UNL     1     -33.908   4.377   4.985  1.00 20.00    -0.171 F 
HETATM    9  F9  UNL     1     -35.597   5.718   4.635  1.00 20.00    -0.171 F 
ENDBRANCH   1   6
TORSDOF 2
