REMARK  0 active torsions:
REMARK  status: ('A' for Active; 'I' for Inactive)
ROOT
HETATM    1  C1  UNL     1     -33.245   6.415   2.798  1.00 20.00     0.117 C 
HETATM    2  C2  UNL     1     -33.678   4.856   5.119  1.00 20.00     0.117 C 
HETATM    3  C3  UNL     1     -32.132   7.319   2.284  1.00 20.00     0.033 C 
HETATM    4  C4  UNL     1     -34.739   4.797   6.209  1.00 20.00     0.033 C 
HETATM    5  S5  UNL     1     -33.402   6.604   4.620  1.00 20.00    -0.137 SA
HETATM    6  S6  UNL     1     -32.903   4.694   2.355  1.00 20.00    -0.081 SA
HETATM    7  S7  UNL     1     -34.187   3.853   3.700  1.00 20.00    -0.081 SA
ENDROOT
TORSDOF 0
