REMARK  3 active torsions:
REMARK  status: ('A' for Active; 'I' for Inactive)
REMARK    1  A    between atoms: C1_1  and  C5_5 
REMARK    2  A    between atoms: C1_1  and  O8_8 
REMARK    3  A    between atoms: C6_6  and  O8_8 
ROOT
HETATM    1  O8  UNL     1     -33.916   6.640   4.267  1.00 20.00    -0.310 OA
ENDROOT
BRANCH   1   2
HETATM    2  C1  UNL     1     -33.324   6.451   3.048  1.00 20.00     0.273 C 
HETATM    3  O7  UNL     1     -33.167   5.371   2.495  1.00 20.00    -0.264 OA
BRANCH   2   4
HETATM    4  C5  UNL     1     -32.904   7.791   2.508  1.00 20.00     0.225 C 
HETATM    5 CL9  UNL     1     -32.105   7.594   0.939  1.00 20.00    -0.120 Cl
ENDBRANCH   2   4
ENDBRANCH   1   2
BRANCH   1   6
HETATM    6  C6  UNL     1     -34.378   5.456   4.921  1.00 20.00     0.060 C 
HETATM    7  C2  UNL     1     -33.184   4.530   5.148  1.00 20.00     0.045 C 
HETATM    8  C3  UNL     1     -34.992   5.877   6.254  1.00 20.00     0.045 C 
HETATM    9  C4  UNL     1     -35.426   4.787   4.033  1.00 20.00     0.045 C 
ENDBRANCH   1   6
TORSDOF 3
