REMARK  2 active torsions:
REMARK  status: ('A' for Active; 'I' for Inactive)
REMARK    1  A    between atoms: C1_1  and  C5_5 
REMARK    2  A    between atoms: C1_1  and  C6_6 
ROOT
HETATM    1  C1  UNL     1     -32.973   6.604   3.885  1.00 20.00     0.167 C 
HETATM    2  O7  UNL     1     -31.967   7.235   4.221  1.00 20.00    -0.294 OA
ENDROOT
BRANCH   1   3
HETATM    3  C5  UNL     1     -33.226   6.282   2.425  1.00 20.00     0.248 C 
HETATM    4 CL8  UNL     1     -32.480   4.717   2.068  1.00 20.00    -0.100 Cl
HETATM    5 CL9  UNL     1     -32.514   7.573   1.445  1.00 20.00    -0.100 Cl
ENDBRANCH   1   3
BRANCH   1   6
HETATM    6  C6  UNL     1     -34.003   6.124   4.929  1.00 20.00     0.012 C 
HETATM    7  C2  UNL     1     -35.144   5.371   4.220  1.00 20.00     0.022 C 
HETATM    8  C3  UNL     1     -33.330   5.167   5.921  1.00 20.00     0.022 C 
HETATM    9  C4  UNL     1     -34.600   7.331   5.664  1.00 20.00     0.022 C 
ENDBRANCH   1   6
TORSDOF 2
