REMARK  2 active torsions:
REMARK  status: ('A' for Active; 'I' for Inactive)
REMARK    1  A    between atoms: C1_1  and  C2_2 
REMARK    2  A    between atoms: C1_1  and  C3_3 
ROOT
HETATM    1  C1  UNL     1     -33.598   6.240   3.453  1.00 20.00     0.148 C 
HETATM    2 CL4  UNL     1     -34.093   4.973   2.259  1.00 20.00    -0.119 Cl
ENDROOT
BRANCH   1   3
HETATM    3  C2  UNL     1     -32.280   6.893   2.985  1.00 20.00     0.199 C 
HETATM    4 CL5  UNL     1     -32.423   7.545   1.319  1.00 20.00    -0.106 Cl
HETATM    5 CL6  UNL     1     -31.789   8.246   4.046  1.00 20.00    -0.106 Cl
ENDBRANCH   1   3
BRANCH   1   6
HETATM    6  C3  UNL     1     -33.547   5.642   4.876  1.00 20.00     0.199 C 
HETATM    7 CL7  UNL     1     -34.814   4.421   5.170  1.00 20.00    -0.106 Cl
HETATM    8 CL8  UNL     1     -33.644   6.913   6.133  1.00 20.00    -0.106 Cl
ENDBRANCH   1   6
TORSDOF 2
