REMARK  2 active torsions:
REMARK  status: ('A' for Active; 'I' for Inactive)
REMARK    1  A    between atoms: C2_2  and  C3_3 
REMARK    2  A    between atoms: C3_3  and  O4_4 
ROOT
HETATM    1  C3  UNL     1     -33.451   6.214   3.177  1.00 20.00     0.398 C 
HETATM    2  F6  UNL     1     -32.655   5.255   2.646  1.00 20.00    -0.171 F 
HETATM    3  F7  UNL     1     -32.682   6.983   3.989  1.00 20.00    -0.171 F 
ENDROOT
BRANCH   1   4
HETATM    4  C2  UNL     1     -34.563   5.591   3.991  1.00 20.00     0.367 C 
HETATM    5  F5  UNL     1     -34.468   4.239   3.894  1.00 20.00    -0.223 F 
HETATM    6 CL8  UNL     1     -34.450   6.044   5.706  1.00 20.00    -0.080 Cl
ENDBRANCH   1   4
BRANCH   1   7
HETATM    7  O4  UNL     1     -33.975   7.032   2.137  1.00 20.00    -0.328 OA
HETATM    8  C1  UNL     1     -32.957   7.634   1.350  1.00 20.00     0.208 C 
ENDBRANCH   1   7
TORSDOF 2
