REMARK  0 active torsions:
REMARK  status: ('A' for Active; 'I' for Inactive)
ROOT
HETATM    1  C1  UNL     1     -32.651   6.470   2.512  1.00 20.00     0.003 C 
HETATM    2  C2  UNL     1     -33.117   5.251   2.218  1.00 20.00    -0.025 C 
HETATM    3  C3  UNL     1     -32.866   7.080   3.815  1.00 20.00    -0.059 C 
HETATM    4  C4  UNL     1     -33.811   6.593   4.656  1.00 20.00    -0.070 C 
HETATM    5  C5  UNL     1     -33.903   4.464   3.219  1.00 20.00     0.040 C 
HETATM    6  C6  UNL     1     -34.645   5.349   4.267  1.00 20.00    -0.021 C 
HETATM    7  C7  UNL     1     -31.972   8.260   4.087  1.00 20.00     0.048 C 
HETATM    8  C8  UNL     1     -34.148   7.246   5.975  1.00 20.00     0.044 C 
HETATM    9  C9  UNL     1     -35.984   5.830   3.664  1.00 20.00     0.020 C 
HETATM   10  C10 UNL     1     -34.953   4.444   5.479  1.00 20.00     0.020 C 
ENDROOT
TORSDOF 0
