REMARK  2 active torsions:
REMARK  status: ('A' for Active; 'I' for Inactive)
REMARK    1  A    between atoms: C1_1  and  C4_4 
REMARK    2  A    between atoms: C5_5  and  C8_8 
ROOT
HETATM    1  C2  UNL     1     -33.113   6.336   2.470  1.00 20.00     0.020 C 
HETATM    2  C3  UNL     1     -33.390   7.954   3.828  1.00 20.00     0.020 C 
HETATM    3  C4  UNL     1     -32.547   7.775   2.542  1.00 20.00     0.087 C 
HETATM    4  C5  UNL     1     -33.320   6.415   4.004  1.00 20.00    -0.010 C 
ENDROOT
BRANCH   3   5
HETATM    5  C1  UNL     1     -32.909   8.665   1.409  1.00 20.00     0.177 C 
HETATM    6  O9  UNL     1     -33.189   9.854   1.725  1.00 20.00    -0.648 OA
HETATM    7  O10 UNL     1     -32.889   8.111   0.274  1.00 20.00    -0.648 OA
ENDBRANCH   3   5
BRANCH   4   8
HETATM    8  C8  UNL     1     -34.556   5.739   4.558  1.00 20.00    -0.019 C 
HETATM    9  C6  UNL     1     -34.569   4.247   4.209  1.00 20.00     0.010 C 
HETATM   10  C7  UNL     1     -34.652   5.926   6.075  1.00 20.00     0.010 C 
ENDBRANCH   4   8
TORSDOF 2
