REMARK  2 active torsions:
REMARK  status: ('A' for Active; 'I' for Inactive)
REMARK    1  A    between atoms: C1_1  and  C3_3 
REMARK    2  A    between atoms: C2_2  and  C5_5 
ROOT
HETATM    1  C1  UNL     1     -32.783   6.297   2.697  1.00 20.00     0.003 C 
HETATM    2  C2  UNL     1     -33.859   6.408   3.487  1.00 20.00     0.049 C 
ENDROOT
BRANCH   1   3
HETATM    3  C3  UNL     1     -32.326   7.375   1.847  1.00 20.00    -0.004 C 
HETATM    4  C4  UNL     1     -33.159   8.170   1.159  1.00 20.00    -0.031 C 
HETATM    5  C6  UNL     1     -32.699   9.286   0.279  1.00 20.00     0.036 C 
ENDBRANCH   1   3
BRANCH   2   6
HETATM    6  C5  UNL     1     -34.349   5.314   4.372  1.00 20.00     0.145 C 
HETATM    7  C7  UNL     1     -34.131   3.877   3.978  1.00 20.00     0.096 C 
HETATM    8  O8  UNL     1     -34.930   5.607   5.418  1.00 20.00    -0.294 OA
ENDBRANCH   2   6
TORSDOF 2
