REMARK  0 active torsions:
REMARK  status: ('A' for Active; 'I' for Inactive)
ROOT
HETATM    1  C1  UNL     1     -35.317   5.350   5.407  1.00 20.00     0.002 C 
HETATM    2  C2  UNL     1     -34.657   6.568   6.057  1.00 20.00     0.002 C 
HETATM    3  C3  UNL     1     -34.436   4.973   4.214  1.00 20.00     0.032 C 
HETATM    4  C4  UNL     1     -33.410   6.873   5.224  1.00 20.00     0.032 C 
HETATM    5  C5  UNL     1     -32.316   7.252   1.728  1.00 20.00     0.086 C 
HETATM    6  C6  UNL     1     -33.774   7.323   1.328  1.00 20.00     0.086 C 
HETATM    7  C7  UNL     1     -33.695   6.261   3.849  1.00 20.00     0.056 C 
HETATM    8  S8  UNL     1     -32.156   5.914   2.935  1.00 20.00    -0.147 SA
HETATM    9  S9  UNL     1     -34.758   7.377   2.846  1.00 20.00    -0.147 SA
ENDROOT
TORSDOF 0
