REMARK  0 active torsions:
REMARK  status: ('A' for Active; 'I' for Inactive)
ROOT
HETATM    1  C1  UNL     1     -33.107   6.861   3.620  1.00 20.00    -0.011 C 
HETATM    2  C2  UNL     1     -33.921   5.636   3.364  1.00 20.00     0.155 C 
HETATM    3  C3  UNL     1     -32.659   7.555   2.566  1.00 20.00    -0.078 C 
HETATM    4  C4  UNL     1     -32.868   7.252   5.047  1.00 20.00     0.042 C 
HETATM    5  C5  UNL     1     -35.053   5.353   4.328  1.00 20.00     0.083 C 
HETATM    6  C6  UNL     1     -34.126   7.096   5.896  1.00 20.00     0.005 C 
HETATM    7  C7  UNL     1     -34.692   5.685   5.770  1.00 20.00     0.008 C 
HETATM    8  C8  UNL     1     -31.834   8.799   2.724  1.00 20.00     0.043 C 
HETATM    9  C9  UNL     1     -32.954   7.135   1.155  1.00 20.00     0.043 C 
HETATM   10  O10 UNL     1     -33.731   4.932   2.374  1.00 20.00    -0.293 OA
ENDROOT
TORSDOF 0
