REMARK  1 active torsions:
REMARK  status: ('A' for Active; 'I' for Inactive)
REMARK    1  A    between atoms: C4_4  and  C7_7 
ROOT
HETATM    1  C1  UNL     1     -34.601   4.265   4.025  1.00 20.00     0.135 A 
HETATM    2  C2  UNL     1     -34.766   5.605   4.296  1.00 20.00     0.136 A 
HETATM    3  C3  UNL     1     -32.893   4.766   2.589  1.00 20.00     0.143 A 
HETATM    4  C4  UNL     1     -33.059   6.106   2.860  1.00 20.00     0.055 A 
HETATM    5  N8  UNL     1     -33.661   3.821   3.166  1.00 20.00    -0.270 NA
HETATM    6  N9  UNL     1     -33.998   6.550   3.719  1.00 20.00    -0.262 NA
ENDROOT
BRANCH   4   7
HETATM    7  C7  UNL     1     -32.175   7.142   2.190  1.00 20.00     0.031 C 
HETATM    8  C5  UNL     1     -31.342   7.918   3.213  1.00 20.00     0.016 C 
HETATM    9  C6  UNL     1     -32.991   8.097   1.315  1.00 20.00     0.016 C 
ENDBRANCH   4   7
TORSDOF 1
