REMARK  3 active torsions:
REMARK  status: ('A' for Active; 'I' for Inactive)
REMARK    1  A    between atoms: C2_2  and  C6_6 
REMARK    2  A    between atoms: C6_6  and  O9_9 
REMARK    3  A    between atoms: C7_7  and  O9_9 
ROOT
HETATM    1  O9  UNL     1     -33.627   6.504   4.266  1.00 20.00    -0.379 OA
ENDROOT
BRANCH   1   2
HETATM    2  C6  UNL     1     -33.278   6.285   2.908  1.00 20.00     0.202 C 
BRANCH   2   3
HETATM    3  C2  UNL     1     -32.363   7.400   2.447  1.00 20.00     0.169 A 
HETATM    4  C1  UNL     1     -32.913   8.737   2.036  1.00 20.00     0.202 A 
HETATM    5  O8  UNL     1     -32.507   7.755   1.068  1.00 20.00    -0.379 OA
ENDBRANCH   2   3
ENDBRANCH   1   2
BRANCH   1   6
HETATM    6  C7  UNL     1     -34.492   5.477   4.751  1.00 20.00     0.050 C 
HETATM    7  C3  UNL     1     -33.769   4.136   4.633  1.00 20.00     0.045 C 
HETATM    8  C4  UNL     1     -34.805   5.792   6.213  1.00 20.00     0.045 C 
HETATM    9  C5  UNL     1     -35.771   5.483   3.915  1.00 20.00     0.045 C 
ENDBRANCH   1   6
TORSDOF 3
