REMARK  2 active torsions:
REMARK  status: ('A' for Active; 'I' for Inactive)
REMARK    1  A    between atoms: C1_1  and  C2_2 
REMARK    2  A    between atoms: C1_1  and  C3_3 
ROOT
HETATM    1  C1  UNL     1     -34.421   6.946   3.370  1.00 20.00     0.153 C 
ENDROOT
BRANCH   1   2
HETATM    2  C2  UNL     1     -34.593   6.060   4.605  1.00 20.00     0.186 C 
HETATM    3 CL7  UNL     1     -33.534   6.560   5.947  1.00 20.00    -0.108 Cl
HETATM    4 CL8  UNL     1     -34.229   4.362   4.186  1.00 20.00    -0.108 Cl
ENDBRANCH   1   2
BRANCH   1   5
HETATM    5  C3  UNL     1     -33.012   6.957   2.808  1.00 20.00     0.390 C 
HETATM    6  F4  UNL     1     -32.128   7.431   3.712  1.00 20.00    -0.171 F 
HETATM    7  F5  UNL     1     -32.604   5.731   2.426  1.00 20.00    -0.171 F 
HETATM    8  F6  UNL     1     -32.950   7.759   1.720  1.00 20.00    -0.171 F 
ENDBRANCH   1   5
TORSDOF 2
