REMARK  0 active torsions:
REMARK  status: ('A' for Active; 'I' for Inactive)
ROOT
HETATM    1  C1  UNL     1     -33.548   4.360   2.866  1.00 20.00     0.053 A 
HETATM    2  C2  UNL     1     -33.556   5.617   3.312  1.00 20.00    -0.072 A 
HETATM    3  C3  UNL     1     -34.227   3.573   3.904  1.00 20.00     0.150 A 
HETATM    4  C4  UNL     1     -32.923   6.805   2.664  1.00 20.00     0.034 C 
HETATM    5  C5  UNL     1     -34.647   4.420   5.074  1.00 20.00     0.092 A 
HETATM    6  C6  UNL     1     -31.993   7.511   3.656  1.00 20.00     0.004 C 
HETATM    7  C7  UNL     1     -32.676   7.785   5.001  1.00 20.00     0.001 C 
HETATM    8  C8  UNL     1     -33.261   6.507   5.613  1.00 20.00     0.009 C 
HETATM    9  C9  UNL     1     -34.226   5.825   4.640  1.00 20.00     0.022 A 
HETATM   10  O10 UNL     1     -34.411   2.368   3.814  1.00 20.00    -0.293 OA
ENDROOT
TORSDOF 0
