REMARK  2 active torsions:
REMARK  status: ('A' for Active; 'I' for Inactive)
REMARK    1  A    between atoms: C1_1  and  C2_2 
REMARK    2  A    between atoms: C1_1  and  C3_3 
ROOT
HETATM    1  C1  UNL     1     -32.748   6.942   3.335  1.00 20.00     0.173 C 
HETATM    2  O4  UNL     1     -31.890   7.436   4.066  1.00 20.00    -0.294 OA
ENDROOT
BRANCH   1   3
HETATM    3  C2  UNL     1     -32.540   6.734   1.849  1.00 20.00     0.195 C 
HETATM    4 CL5  UNL     1     -33.033   8.169   0.939  1.00 20.00    -0.122 Cl
ENDBRANCH   1   3
BRANCH   1   5
HETATM    5  C3  UNL     1     -34.107   6.539   3.866  1.00 20.00     0.248 C 
HETATM    6 CL6  UNL     1     -34.131   6.878   5.600  1.00 20.00    -0.100 Cl
HETATM    7 CL7  UNL     1     -34.374   4.822   3.537  1.00 20.00    -0.100 Cl
ENDBRANCH   1   5
TORSDOF 2
