REMARK  0 active torsions:
REMARK  status: ('A' for Active; 'I' for Inactive)
ROOT
HETATM    1  C1  UNL     1     -34.583   5.599   6.489  1.00 20.00     0.000 C 
HETATM    2  C2  UNL     1     -34.829   4.385   5.598  1.00 20.00     0.000 C 
HETATM    3  C3  UNL     1     -33.439   6.514   6.051  1.00 20.00     0.004 C 
HETATM    4  C4  UNL     1     -35.053   4.693   4.118  1.00 20.00     0.004 C 
HETATM    5  C5  UNL     1     -33.784   7.331   4.803  1.00 20.00     0.049 C 
HETATM    6  C6  UNL     1     -33.769   5.129   3.412  1.00 20.00     0.049 C 
HETATM    7  C7  UNL     1     -31.799   6.996   1.853  1.00 20.00     0.180 C 
HETATM    8  C8  UNL     1     -32.785   8.035   1.356  1.00 20.00     0.103 C 
HETATM    9  C9  UNL     1     -33.453   6.633   3.475  1.00 20.00     0.108 C 
HETATM   10  O10 UNL     1     -32.033   6.791   3.251  1.00 20.00    -0.369 OA
HETATM   11  S11 UNL     1     -34.327   7.519   2.124  1.00 20.00    -0.129 SA
ENDROOT
TORSDOF 0
