REMARK  0 active torsions:
REMARK  status: ('A' for Active; 'I' for Inactive)
ROOT
HETATM    1  C1  UNL     1     -34.458   4.911   5.723  1.00 20.00     0.051 C 
HETATM    2  C2  UNL     1     -33.721   4.356   3.385  1.00 20.00     0.051 C 
HETATM    3  C3  UNL     1     -33.837   6.754   4.130  1.00 20.00     0.051 C 
HETATM    4  C4  UNL     1     -34.444   5.364   4.269  1.00 20.00     0.092 C 
HETATM    5  F5  UNL     1     -35.740   5.433   3.843  1.00 20.00    -0.244 F 
ENDROOT
TORSDOF 0
