REMARK  2 active torsions:
REMARK  status: ('A' for Active; 'I' for Inactive)
REMARK    1  A    between atoms: C6_6  and  C7_7 
REMARK    2  A    between atoms: C7_7  and  O8_8 
ROOT
HETATM    1  C1  UNL     1     -34.557   6.984   6.218  1.00 20.00     0.015 C 
HETATM    2  C2  UNL     1     -34.770   6.274   5.273  1.00 20.00    -0.079 C 
HETATM    3  C5  UNL     1     -36.164   6.011   3.268  1.00 20.00     0.061 C 
HETATM    4  C7  UNL     1     -35.039   5.400   4.113  1.00 20.00     0.119 C 
ENDROOT
BRANCH   4   5
HETATM    5  C6  UNL     1     -33.757   5.127   3.273  1.00 20.00     0.024 C 
HETATM    6  C3  UNL     1     -33.984   4.194   2.077  1.00 20.00     0.014 C 
HETATM    7  C4  UNL     1     -33.080   6.420   2.792  1.00 20.00     0.014 C 
ENDBRANCH   4   5
BRANCH   4   8
HETATM    8  O8  UNL     1     -35.530   4.149   4.611  1.00 20.00    -0.378 OA
HETATM    9  H20 UNL     1     -36.338   4.353   5.103  1.00 20.00     0.211 HD
ENDBRANCH   4   8
TORSDOF 2
