REMARK  0 active torsions:
REMARK  status: ('A' for Active; 'I' for Inactive)
ROOT
HETATM    1  C1  UNL     1     -33.993   6.391   4.996  1.00 20.00    -0.013 A 
HETATM    2  C2  UNL     1     -32.924   7.011   4.478  1.00 20.00    -0.070 A 
HETATM    3  C3  UNL     1     -34.558   5.575   3.904  1.00 20.00     0.160 A 
HETATM    4  C4  UNL     1     -32.663   6.710   3.018  1.00 20.00     0.022 A 
HETATM    5  C5  UNL     1     -33.759   5.701   2.632  1.00 20.00     0.064 A 
HETATM    6  C6  UNL     1     -34.593   6.409   6.351  1.00 20.00     0.052 C 
HETATM    7  C7  UNL     1     -31.986   7.917   5.208  1.00 20.00     0.044 C 
HETATM    8  C8  UNL     1     -32.734   7.961   2.143  1.00 20.00     0.015 C 
HETATM    9  C9  UNL     1     -33.196   4.349   2.220  1.00 20.00     0.019 C 
HETATM   10  O10 UNL     1     -35.552   4.875   4.034  1.00 20.00    -0.292 OA
ENDROOT
TORSDOF 0
