REMARK  0 active torsions:
REMARK  status: ('A' for Active; 'I' for Inactive)
ROOT
HETATM    1  C1  UNL     1     -33.331   6.991   3.047  1.00 20.00    -0.007 C 
HETATM    2  C2  UNL     1     -34.839   7.081   3.015  1.00 20.00     0.056 C 
HETATM    3  C3  UNL     1     -33.175   6.602   5.419  1.00 20.00     0.011 C 
HETATM    4  C4  UNL     1     -34.719   6.647   5.477  1.00 20.00     0.011 C 
HETATM    5  C5  UNL     1     -32.897   5.940   4.055  1.00 20.00     0.034 C 
HETATM    6  C6  UNL     1     -35.146   6.021   4.117  1.00 20.00    -0.032 C 
HETATM    7  C7  UNL     1     -34.057   4.922   3.894  1.00 20.00    -0.032 C 
HETATM    8  C8  UNL     1     -36.592   5.564   4.099  1.00 20.00     0.016 C 
HETATM    9  C9  UNL     1     -34.040   3.794   4.945  1.00 20.00     0.016 C 
HETATM   10  C10 UNL     1     -34.083   4.230   2.516  1.00 20.00     0.016 C 
HETATM   11  S11 UNL     1     -32.306   7.920   2.128  1.00 20.00    -0.089 SA
ENDROOT
TORSDOF 0
