REMARK  1 active torsions:
REMARK  status: ('A' for Active; 'I' for Inactive)
REMARK    1  A    between atoms: C5_5  and  O10_10 
ROOT
HETATM    1  C1  UNL     1     -33.549   6.783   5.460  1.00 20.00     0.007 C 
HETATM    2  C2  UNL     1     -34.499   5.856   5.250  1.00 20.00    -0.084 C 
HETATM    3  C3  UNL     1     -35.011   5.534   3.866  1.00 20.00     0.042 C 
HETATM    4  C4  UNL     1     -33.608   7.448   3.005  1.00 20.00     0.045 C 
HETATM    5  C5  UNL     1     -32.931   7.612   4.372  1.00 20.00     0.142 C 
HETATM    6  C6  UNL     1     -34.085   6.004   2.717  1.00 20.00    -0.042 C 
HETATM    7  C7  UNL     1     -35.118   5.087   6.380  1.00 20.00     0.043 C 
HETATM    8  C8  UNL     1     -34.875   5.991   1.394  1.00 20.00     0.015 C 
HETATM    9  C9  UNL     1     -32.891   5.040   2.563  1.00 20.00     0.015 C 
ENDROOT
BRANCH   5  10
HETATM   10  O10 UNL     1     -31.549   7.280   4.256  1.00 20.00    -0.392 OA
HETATM   11  H26 UNL     1     -31.145   7.477   5.115  1.00 20.00     0.210 HD
ENDBRANCH   5  10
TORSDOF 1
