REMARK  3 active torsions:
REMARK  status: ('A' for Active; 'I' for Inactive)
REMARK    1  A    between atoms: C1_1  and  C5_5 
REMARK    2  A    between atoms: C2_2  and  C6_6 
REMARK    3  A    between atoms: C6_6  and  C7_7 
ROOT
HETATM    1  C1  UNL     1     -33.791   5.587   3.421  1.00 20.00     0.150 A 
HETATM    2  C2  UNL     1     -32.935   6.247   2.368  1.00 20.00     0.151 A 
HETATM    3  O8  UNL     1     -34.159   5.579   2.035  1.00 20.00    -0.376 OA
ENDROOT
BRANCH   2   4
HETATM    4  C6  UNL     1     -32.936   7.746   2.112  1.00 20.00     0.034 C 
BRANCH   4   5
HETATM    5  C7  UNL     1     -32.942   8.058   0.617  1.00 20.00    -0.002 C 
HETATM    6  C4  UNL     1     -32.972   9.556   0.361  1.00 20.00     0.005 C 
ENDBRANCH   4   5
ENDBRANCH   2   4
BRANCH   1   7
HETATM    7  C5  UNL     1     -34.717   6.340   4.307  1.00 20.00     0.030 C 
HETATM    8  C3  UNL     1     -34.029   6.944   5.507  1.00 20.00     0.007 C 
ENDBRANCH   1   7
TORSDOF 3
