REMARK  3 active torsions:
REMARK  status: ('A' for Active; 'I' for Inactive)
REMARK    1  A    between atoms: C6_6  and  C9_9 
REMARK    2  A    between atoms: C7_7  and  C8_8 
REMARK    3  A    between atoms: C7_7  and  C9_9 
ROOT
HETATM    1  C4  UNL     1     -33.129   5.152   2.790  1.00 20.00     0.015 C 
HETATM    2  C5  UNL     1     -32.526   7.239   4.000  1.00 20.00     0.015 C 
HETATM    3  C9  UNL     1     -33.685   6.496   3.298  1.00 20.00    -0.048 C 
ENDROOT
BRANCH   3   4
HETATM    4  C6  UNL     1     -34.807   6.188   4.330  1.00 20.00     0.004 C 
HETATM    5  C1  UNL     1     -34.384   5.387   5.556  1.00 20.00     0.006 C 
ENDBRANCH   3   4
BRANCH   3   6
HETATM    6  C7  UNL     1     -34.169   7.389   2.115  1.00 20.00     0.012 C 
BRANCH   6   7
HETATM    7  C8  UNL     1     -33.098   8.229   1.382  1.00 20.00    -0.022 C 
HETATM    8  C2  UNL     1     -32.030   7.307   0.780  1.00 20.00     0.009 C 
HETATM    9  C3  UNL     1     -33.703   9.074   0.256  1.00 20.00     0.009 C 
ENDBRANCH   6   7
ENDBRANCH   3   6
TORSDOF 3
