REMARK  4 active torsions:
REMARK  status: ('A' for Active; 'I' for Inactive)
REMARK    1  A    between atoms: C2_2  and  C5_5 
REMARK    2  A    between atoms: C2_2  and  C6_6 
REMARK    3  A    between atoms: C5_5  and  O7_7 
REMARK    4  A    between atoms: C6_6  and  S8_8 
ROOT
HETATM    1  C1  UNL     1     -34.063   5.965   4.954  1.00 20.00    -0.025 C 
HETATM    2  C2  UNL     1     -33.597   6.053   3.692  1.00 20.00    -0.051 C 
HETATM    3  C3  UNL     1     -33.790   6.890   6.097  1.00 20.00     0.036 C 
ENDROOT
BRANCH   2   4
HETATM    4  C5  UNL     1     -34.008   5.020   2.670  1.00 20.00     0.198 C 
BRANCH   4   5
HETATM    5  O7  UNL     1     -32.853   4.352   2.178  1.00 20.00    -0.397 OA
HETATM    6  H20 UNL     1     -33.162   3.701   1.528  1.00 20.00     0.209 HD
ENDBRANCH   4   5
ENDBRANCH   2   4
BRANCH   2   7
HETATM    7  C6  UNL     1     -32.647   7.122   3.213  1.00 20.00     0.109 C 
BRANCH   7   8
HETATM    8  S8  UNL     1     -32.923   7.490   1.457  1.00 20.00    -0.169 SA
HETATM    9  C4  UNL     1     -31.327   8.257   1.095  1.00 20.00     0.090 C 
ENDBRANCH   7   8
ENDBRANCH   2   7
TORSDOF 4
