REMARK  2 active torsions:
REMARK  status: ('A' for Active; 'I' for Inactive)
REMARK    1  A    between atoms: C1_1  and  C3_3 
REMARK    2  A    between atoms: C2_2  and  C3_3 
ROOT
HETATM    1  C3  UNL     1     -34.383   6.442   4.238  1.00 20.00     0.187 C 
HETATM    2 BR7  UNL     1     -33.571   7.157   5.871  1.00 20.00    -0.077 Br
ENDROOT
BRANCH   1   3
HETATM    3  C1  UNL     1     -33.236   6.328   3.231  1.00 20.00     0.190 C 
HETATM    4  O4  UNL     1     -33.421   5.476   2.313  1.00 20.00    -0.647 OA
HETATM    5  O5  UNL     1     -32.238   7.074   3.433  1.00 20.00    -0.647 OA
ENDBRANCH   1   3
BRANCH   1   6
HETATM    6  C2  UNL     1     -35.131   5.168   4.572  1.00 20.00     0.248 C 
HETATM    7  F6  UNL     1     -34.279   4.240   5.086  1.00 20.00    -0.254 F 
ENDBRANCH   1   6
TORSDOF 2
