REMARK  3 active torsions:
REMARK  status: ('A' for Active; 'I' for Inactive)
REMARK    1  A    between atoms: C2_2  and  C7_7 
REMARK    2  A    between atoms: C5_5  and  C6_6 
REMARK    3  A    between atoms: C6_6  and  C7_7 
ROOT
HETATM    1  C4  UNL     1     -33.454   5.269   2.358  1.00 20.00     0.012 C 
HETATM    2  C7  UNL     1     -32.952   6.453   3.185  1.00 20.00     0.012 C 
ENDROOT
BRANCH   2   3
HETATM    3  C2  UNL     1     -34.067   6.944   4.112  1.00 20.00     0.149 A 
HETATM    4  C1  UNL     1     -33.786   7.304   5.544  1.00 20.00     0.200 A 
HETATM    5  O8  UNL     1     -34.388   6.050   5.182  1.00 20.00    -0.381 OA
ENDBRANCH   2   3
BRANCH   2   6
HETATM    6  C6  UNL     1     -32.454   7.615   2.306  1.00 20.00     0.006 C 
BRANCH   6   7
HETATM    7  C5  UNL     1     -33.392   7.944   1.142  1.00 20.00    -0.004 C 
HETATM    8  C3  UNL     1     -32.891   9.142   0.349  1.00 20.00     0.005 C 
ENDBRANCH   6   7
ENDBRANCH   2   6
TORSDOF 3
