REMARK  0 active torsions:
REMARK  status: ('A' for Active; 'I' for Inactive)
ROOT
HETATM    1  C1  UNL     1     -33.741   6.437   5.948  1.00 20.00     0.196 C 
HETATM    2  C2  UNL     1     -34.442   5.174   6.371  1.00 20.00     0.196 C 
HETATM    3  C3  UNL     1     -34.577   5.395   4.129  1.00 20.00     0.337 C 
HETATM    4  O4  UNL     1     -34.282   6.693   4.654  1.00 20.00    -0.365 OA
HETATM    5  O5  UNL     1     -34.499   4.413   5.166  1.00 20.00    -0.365 OA
ENDROOT
TORSDOF 0
