REMARK  2 active torsions:
REMARK  status: ('A' for Active; 'I' for Inactive)
REMARK    1  A    between atoms: C1_1  and  C2_2 
REMARK    2  A    between atoms: C2_2  and  C3_3 
ROOT
HETATM    1  C2  UNL     1     -33.840   6.624   4.200  1.00 20.00     0.203 C 
HETATM    2 CL8  UNL     1     -32.599   7.381   5.246  1.00 20.00    -0.115 Cl
ENDROOT
BRANCH   1   3
HETATM    3  C1  UNL     1     -33.234   6.195   2.864  1.00 20.00     0.143 C 
HETATM    4 CL7  UNL     1     -32.495   7.566   1.998  1.00 20.00    -0.129 Cl
ENDBRANCH   1   3
BRANCH   1   5
HETATM    5  C3  UNL     1     -34.445   5.440   4.934  1.00 20.00     0.405 C 
HETATM    6  F4  UNL     1     -35.451   4.874   4.233  1.00 20.00    -0.169 F 
HETATM    7  F5  UNL     1     -33.513   4.486   5.156  1.00 20.00    -0.169 F 
HETATM    8  F6  UNL     1     -34.935   5.809   6.138  1.00 20.00    -0.169 F 
ENDBRANCH   1   5
TORSDOF 2
