REMARK  3 active torsions:
REMARK  status: ('A' for Active; 'I' for Inactive)
REMARK    1  A    between atoms: C2_2  and  C7_7 
REMARK    2  A    between atoms: C5_5  and  C6_6 
REMARK    3  A    between atoms: C6_6  and  C7_7 
ROOT
HETATM    1  C4  UNL     1     -34.056   5.101   3.202  1.00 20.00     0.012 C 
HETATM    2  C7  UNL     1     -34.077   6.501   3.819  1.00 20.00     0.012 C 
ENDROOT
BRANCH   2   3
HETATM    3  C2  UNL     1     -34.616   6.425   5.250  1.00 20.00     0.149 A 
HETATM    4  C1  UNL     1     -33.721   6.062   6.401  1.00 20.00     0.200 A 
HETATM    5  O8  UNL     1     -34.096   7.423   6.135  1.00 20.00    -0.381 OA
ENDBRANCH   2   3
BRANCH   2   6
HETATM    6  C6  UNL     1     -32.688   7.166   3.819  1.00 20.00     0.006 C 
BRANCH   6   7
HETATM    7  C5  UNL     1     -32.098   7.344   2.418  1.00 20.00    -0.004 C 
HETATM    8  C3  UNL     1     -33.025   8.154   1.524  1.00 20.00     0.005 C 
ENDBRANCH   6   7
ENDBRANCH   2   6
TORSDOF 3
