REMARK  3 active torsions:
REMARK  status: ('A' for Active; 'I' for Inactive)
REMARK    1  A    between atoms: C1_1  and  C3_3 
REMARK    2  A    between atoms: C3_3  and  C6_6 
REMARK    3  A    between atoms: C6_6  and  C7_7 
ROOT
HETATM    1  C3  UNL     1     -32.444   6.809   2.930  1.00 20.00     0.149 C 
HETATM    2  O8  UNL     1     -32.034   7.434   3.904  1.00 20.00    -0.293 OA
ENDROOT
BRANCH   1   3
HETATM    3  C1  UNL     1     -32.271   7.320   1.540  1.00 20.00     0.045 C 
HETATM    4  C2  UNL     1     -33.201   8.100   0.974  1.00 20.00    -0.027 C 
HETATM    5  C4  UNL     1     -33.083   8.643  -0.413  1.00 20.00     0.036 C 
ENDBRANCH   1   3
BRANCH   1   6
HETATM    6  C6  UNL     1     -33.156   5.472   3.048  1.00 20.00     0.082 C 
BRANCH   6   7
HETATM    7  C7  UNL     1     -34.451   5.571   3.850  1.00 20.00     0.003 C 
HETATM    8  C5  UNL     1     -34.191   6.030   5.275  1.00 20.00     0.005 C 
ENDBRANCH   6   7
ENDBRANCH   1   6
TORSDOF 3
