REMARK  5 active torsions:
REMARK  status: ('A' for Active; 'I' for Inactive)
REMARK    1  A    between atoms: C3_3  and  C7_7 
REMARK    2  A    between atoms: C4_4  and  C8_8 
REMARK    3  A    between atoms: C7_7  and  C9_9 
REMARK    4  A    between atoms: C8_8  and  C10_10 
REMARK    5  A    between atoms: C9_9  and  C10_10 
ROOT
HETATM    1  C1  UNL     1     -32.936   8.407   0.499  1.00 20.00    -0.111 C 
HETATM    2  C3  UNL     1     -32.772   8.238   1.677  1.00 20.00    -0.107 C 
HETATM    3  C5  UNL     1     -33.139   8.613  -0.934  1.00 20.00     0.112 C 
ENDROOT
BRANCH   2   4
HETATM    4  C7  UNL     1     -32.570   8.030   3.117  1.00 20.00     0.094 C 
BRANCH   4   5
HETATM    5  C9  UNL     1     -33.665   7.158   3.736  1.00 20.00     0.013 C 
BRANCH   5   6
HETATM    6  C10 UNL     1     -33.423   6.868   5.224  1.00 20.00     0.013 C 
BRANCH   6   7
HETATM    7  C8  UNL     1     -34.519   5.998   5.843  1.00 20.00     0.094 C 
BRANCH   7   8
HETATM    8  C4  UNL     1     -34.626   4.687   5.188  1.00 20.00    -0.107 C 
HETATM    9  C2  UNL     1     -34.714   3.616   4.652  1.00 20.00    -0.111 C 
HETATM   10  C6  UNL     1     -34.818   2.312   3.999  1.00 20.00     0.112 C 
ENDBRANCH   7   8
ENDBRANCH   6   7
ENDBRANCH   5   6
ENDBRANCH   4   5
ENDBRANCH   2   4
TORSDOF 5
