REMARK  2 active torsions:
REMARK  status: ('A' for Active; 'I' for Inactive)
REMARK    1  A    between atoms: C7_7  and  O9_9 
REMARK    2  A    between atoms: C8_8  and  O9_9 
ROOT
HETATM    1  O9  UNL     1     -32.962   5.976   4.105  1.00 20.00    -0.371 OA
ENDROOT
BRANCH   1   2
HETATM    2  C7  UNL     1     -34.197   5.832   4.808  1.00 20.00     0.051 C 
HETATM    3  C1  UNL     1     -34.860   4.529   4.363  1.00 20.00     0.045 C 
HETATM    4  C2  UNL     1     -33.875   5.789   6.300  1.00 20.00     0.045 C 
HETATM    5  C3  UNL     1     -35.084   7.033   4.483  1.00 20.00     0.045 C 
ENDBRANCH   1   2
BRANCH   1   6
HETATM    6  C8  UNL     1     -33.169   6.017   2.702  1.00 20.00     0.051 C 
HETATM    7  C4  UNL     1     -34.543   6.630   2.431  1.00 20.00     0.045 C 
HETATM    8  C5  UNL     1     -32.066   6.883   2.099  1.00 20.00     0.045 C 
HETATM    9  C6  UNL     1     -33.092   4.591   2.157  1.00 20.00     0.045 C 
ENDBRANCH   1   6
TORSDOF 2
