REMARK  1 active torsions:
REMARK  status: ('A' for Active; 'I' for Inactive)
REMARK    1  A    between atoms: C2_2  and  C3_3 
ROOT
HETATM    1  C1  UNL     1     -33.902   7.331   5.554  1.00 20.00     0.023 C 
HETATM    2  C2  UNL     1     -34.271   6.132   5.081  1.00 20.00    -0.009 C 
HETATM    3  C4  UNL     1     -35.056   5.165   5.918  1.00 20.00     0.052 C 
ENDROOT
BRANCH   2   4
HETATM    4  C3  UNL     1     -33.918   5.683   3.685  1.00 20.00     0.247 C 
HETATM    5  O5  UNL     1     -34.294   4.566   3.328  1.00 20.00    -0.274 OA
HETATM    6 CL6  UNL     1     -33.000   6.742   2.630  1.00 20.00    -0.039 Cl
ENDBRANCH   2   4
TORSDOF 1
