REMARK  3 active torsions:
REMARK  status: ('A' for Active; 'I' for Inactive)
REMARK    1  A    between atoms: C1_1  and  C2_2 
REMARK    2  A    between atoms: C4_4  and  C6_6 
REMARK    3  A    between atoms: C6_6  and  O7_7 
ROOT
HETATM    1  C2  UNL     1     -33.069   6.307   2.944  1.00 20.00    -0.002 C 
HETATM    2  C4  UNL     1     -34.055   6.576   3.812  1.00 20.00    -0.001 C 
ENDROOT
BRANCH   1   3
HETATM    3  C1  UNL     1     -32.400   7.327   2.168  1.00 20.00    -0.005 C 
HETATM    4  C3  UNL     1     -33.042   8.363   1.610  1.00 20.00    -0.031 C 
HETATM    5  C5  UNL     1     -32.364   9.423   0.805  1.00 20.00     0.036 C 
ENDBRANCH   1   3
BRANCH   2   6
HETATM    6  C6  UNL     1     -34.750   5.528   4.622  1.00 20.00     0.191 C 
BRANCH   6   7
HETATM    7  O7  UNL     1     -36.143   5.550   4.341  1.00 20.00    -0.397 OA
HETATM    8  H17 UNL     1     -36.550   4.858   4.886  1.00 20.00     0.209 HD
ENDBRANCH   6   7
ENDBRANCH   2   6
TORSDOF 3
