REMARK  2 active torsions:
REMARK  status: ('A' for Active; 'I' for Inactive)
REMARK    1  A    between atoms: C5_5  and  C7_7 
REMARK    2  A    between atoms: C7_7  and  C8_8 
ROOT
HETATM    1  C1  UNL     1     -34.819   5.965   6.014  1.00 20.00    -0.030 C 
HETATM    2  C2  UNL     1     -34.103   7.020   5.614  1.00 20.00    -0.026 C 
HETATM    3  C3  UNL     1     -35.106   5.030   4.889  1.00 20.00     0.027 C 
HETATM    4  C4  UNL     1     -34.145   5.508   3.800  1.00 20.00     0.012 C 
HETATM    5  C5  UNL     1     -33.800   6.963   4.148  1.00 20.00     0.008 C 
ENDROOT
BRANCH   5   6
HETATM    6  C7  UNL     1     -32.355   7.308   3.822  1.00 20.00     0.008 C 
BRANCH   6   7
HETATM    7  C8  UNL     1     -32.080   7.201   2.323  1.00 20.00    -0.004 C 
HETATM    8  C6  UNL     1     -32.984   8.125   1.524  1.00 20.00     0.005 C 
ENDBRANCH   6   7
ENDBRANCH   5   6
TORSDOF 2
