REMARK  0 active torsions:
REMARK  status: ('A' for Active; 'I' for Inactive)
ROOT
HETATM    1  C1  UNL     1     -35.285   5.652   5.595  1.00 20.00     0.050 C 
HETATM    2  C2  UNL     1     -34.002   6.294   6.095  1.00 20.00     0.171 C 
HETATM    3  C3  UNL     1     -34.962   5.340   4.149  1.00 20.00     0.128 C 
HETATM    4  C4  UNL     1     -34.127   6.564   3.788  1.00 20.00     0.235 C 
HETATM    5  O5  UNL     1     -33.361   6.895   4.957  1.00 20.00    -0.369 OA
HETATM    6 CL6  UNL     1     -34.048   3.802   4.063  1.00 20.00    -0.121 Cl
HETATM    7 CL7  UNL     1     -33.079   6.384   2.376  1.00 20.00    -0.094 Cl
ENDROOT
TORSDOF 0
