REMARK  0 active torsions:
REMARK  status: ('A' for Active; 'I' for Inactive)
ROOT
HETATM    1  C1  UNL     1     -32.956   6.760   4.206  1.00 20.00     0.132 C 
HETATM    2  C2  UNL     1     -35.263   5.334   3.959  1.00 20.00     0.064 C 
HETATM    3  C3  UNL     1     -34.987   6.026   5.287  1.00 20.00     0.128 C 
HETATM    4  C4  UNL     1     -33.998   4.850   3.240  1.00 20.00     0.051 C 
HETATM    5  C5  UNL     1     -31.885   7.801   4.291  1.00 20.00     0.099 C 
HETATM    6  C6  UNL     1     -34.738   5.101   6.470  1.00 20.00     0.040 C 
HETATM    7  C7  UNL     1     -34.328   4.630   1.752  1.00 20.00     0.040 C 
HETATM    8  C8  UNL     1     -33.445   3.535   3.802  1.00 20.00     0.040 C 
HETATM    9  N9  UNL     1     -32.936   5.855   3.296  1.00 20.00    -0.261 NA
HETATM   10  O10 UNL     1     -33.888   6.946   5.174  1.00 20.00    -0.333 OA
ENDROOT
TORSDOF 0
