REMARK  0 active torsions:
REMARK  status: ('A' for Active; 'I' for Inactive)
ROOT
HETATM    1  C1  UNL     1     -33.068   7.287   2.620  1.00 20.00    -0.077 C 
HETATM    2  C2  UNL     1     -33.714   6.298   3.253  1.00 20.00    -0.077 C 
HETATM    3  C3  UNL     1     -32.315   7.068   1.334  1.00 20.00     0.034 C 
HETATM    4  C4  UNL     1     -33.061   8.705   3.130  1.00 20.00     0.034 C 
HETATM    5  C5  UNL     1     -34.467   6.518   4.540  1.00 20.00     0.034 C 
HETATM    6  C6  UNL     1     -33.722   4.881   2.743  1.00 20.00     0.034 C 
HETATM    7  C7  UNL     1     -32.787   8.045   0.257  1.00 20.00     0.004 C 
HETATM    8  C8  UNL     1     -33.528   9.675   2.044  1.00 20.00     0.004 C 
HETATM    9  C9  UNL     1     -33.996   5.540   5.617  1.00 20.00     0.004 C 
HETATM   10  C10 UNL     1     -33.254   3.911   3.830  1.00 20.00     0.004 C 
HETATM   11  C11 UNL     1     -32.742   9.495   0.744  1.00 20.00     0.001 C 
HETATM   12  C12 UNL     1     -34.041   4.091   5.129  1.00 20.00     0.001 C 
ENDROOT
TORSDOF 0
