REMARK  1 active torsions:
REMARK  status: ('A' for Active; 'I' for Inactive)
REMARK    1  A    between atoms: C6_6  and  C8_8 
ROOT
HETATM    1  C1  UNL     1     -34.124   5.094   6.241  1.00 20.00     0.000 C 
HETATM    2  C2  UNL     1     -34.415   4.190   5.048  1.00 20.00     0.002 C 
HETATM    3  C3  UNL     1     -34.389   6.561   5.919  1.00 20.00     0.002 C 
HETATM    4  C4  UNL     1     -33.647   4.636   3.802  1.00 20.00     0.026 C 
HETATM    5  C5  UNL     1     -33.621   7.013   4.675  1.00 20.00     0.026 C 
HETATM    6  C6  UNL     1     -33.868   6.119   3.446  1.00 20.00     0.037 C 
HETATM    7 CL9  UNL     1     -35.565   6.348   2.873  1.00 20.00    -0.119 Cl
ENDROOT
BRANCH   6   8
HETATM    8  C8  UNL     1     -32.939   6.530   2.299  1.00 20.00     0.021 C 
HETATM    9  C7  UNL     1     -33.128   7.962   1.929  1.00 20.00     0.007 C 
ENDBRANCH   6   8
TORSDOF 1
