REMARK  2 active torsions:
REMARK  status: ('A' for Active; 'I' for Inactive)
REMARK    1  A    between atoms: C5_5  and  C7_7 
REMARK    2  A    between atoms: C6_6  and  O8_8 
ROOT
HETATM    1  C1  UNL     1     -33.793   3.792   2.679  1.00 20.00     0.003 C 
HETATM    2  C2  UNL     1     -33.024   5.079   2.387  1.00 20.00     0.014 C 
HETATM    3  C3  UNL     1     -34.217   3.711   4.141  1.00 20.00     0.032 C 
HETATM    4  C4  UNL     1     -34.237   6.235   4.277  1.00 20.00     0.045 C 
HETATM    5  C5  UNL     1     -33.818   6.325   2.805  1.00 20.00     0.096 C 
HETATM    6  C6  UNL     1     -35.008   4.946   4.565  1.00 20.00     0.118 C 
ENDROOT
BRANCH   5   7
HETATM    7  C7  UNL     1     -33.004   7.593   2.552  1.00 20.00     0.391 C 
HETATM    8  F9  UNL     1     -33.723   8.674   2.888  1.00 20.00    -0.171 F 
HETATM    9  F10 UNL     1     -31.881   7.572   3.285  1.00 20.00    -0.171 F 
HETATM   10  F11 UNL     1     -32.675   7.676   1.254  1.00 20.00    -0.171 F 
ENDBRANCH   5   7
BRANCH   6  11
HETATM   11  O8  UNL     1     -35.305   4.868   5.956  1.00 20.00    -0.396 OA
HETATM   12  H22 UNL     1     -35.830   4.062   6.082  1.00 20.00     0.210 HD
ENDBRANCH   6  11
TORSDOF 2
