REMARK  4 active torsions:
REMARK  status: ('A' for Active; 'I' for Inactive)
REMARK    1  A    between atoms: C5_5  and  O8_8 
REMARK    2  A    between atoms: C6_6  and  O9_9 
REMARK    3  A    between atoms: C7_7  and  O8_8 
REMARK    4  A    between atoms: C7_7  and  O9_9 
ROOT
HETATM    1  C1  UNL     1     -33.264   9.510   0.319  1.00 20.00     0.014 C 
HETATM    2  C2  UNL     1     -32.949   8.594   1.028  1.00 20.00    -0.091 C 
HETATM    3  C5  UNL     1     -32.563   7.477   1.891  1.00 20.00     0.263 C 
ENDROOT
BRANCH   3   4
HETATM    4  O8  UNL     1     -33.700   6.692   2.227  1.00 20.00    -0.350 OA
BRANCH   4   5
HETATM    5  C7  UNL     1     -33.382   5.583   3.072  1.00 20.00     0.256 C 
HETATM    6  C4  UNL     1     -32.810   4.453   2.226  1.00 20.00     0.070 C 
BRANCH   5   7
HETATM    7  O9  UNL     1     -34.557   5.067   3.710  1.00 20.00    -0.362 OA
BRANCH   7   8
HETATM    8  C6  UNL     1     -35.190   6.035   4.537  1.00 20.00     0.166 C 
HETATM    9  C3  UNL     1     -34.220   6.476   5.612  1.00 20.00     0.033 C 
ENDBRANCH   7   8
ENDBRANCH   5   7
ENDBRANCH   4   5
ENDBRANCH   3   4
TORSDOF 4
