REMARK  3 active torsions:
REMARK  status: ('A' for Active; 'I' for Inactive)
REMARK    1  A    between atoms: C3_3  and  C4_4 
REMARK    2  A    between atoms: C5_5  and  C8_8 
REMARK    3  A    between atoms: C6_6  and  C8_8 
ROOT
HETATM    1  C4  UNL     1     -32.909   7.600   1.793  1.00 20.00    -0.004 C 
HETATM    2  C6  UNL     1     -32.695   6.306   2.079  1.00 20.00    -0.019 C 
ENDROOT
BRANCH   2   3
HETATM    3  C8  UNL     1     -32.841   5.721   3.463  1.00 20.00     0.026 C 
HETATM    4  C7  UNL     1     -33.202   6.822   4.463  1.00 20.00     0.018 C 
BRANCH   3   5
HETATM    5  C5  UNL     1     -33.896   4.643   3.475  1.00 20.00    -0.029 C 
HETATM    6  C2  UNL     1     -35.005   4.692   4.223  1.00 20.00     0.007 C 
ENDBRANCH   3   5
ENDBRANCH   2   3
BRANCH   1   7
HETATM    7  C3  UNL     1     -32.766   8.149   0.465  1.00 20.00    -0.011 C 
HETATM    8  C1  UNL     1     -32.979   9.438   0.176  1.00 20.00     0.011 C 
ENDBRANCH   1   7
TORSDOF 3
