REMARK  0 active torsions:
REMARK  status: ('A' for Active; 'I' for Inactive)
ROOT
HETATM    1  C1  UNL     1     -34.081   6.699   4.790  1.00 20.00     0.127 C 
HETATM    2  C2  UNL     1     -32.909   7.271   5.549  1.00 20.00     0.078 C 
HETATM    3  C3  UNL     1     -33.774   6.089   3.440  1.00 20.00     0.087 C 
HETATM    4  C4  UNL     1     -32.116   8.222   4.667  1.00 20.00     0.008 C 
HETATM    5  C5  UNL     1     -32.823   8.305  -0.200  1.00 20.00     0.000 C 
HETATM    6  C6  UNL     1     -33.301   9.109   1.003  1.00 20.00     0.001 C 
HETATM    7  C7  UNL     1     -31.888   7.172   0.206  1.00 20.00     0.001 C 
HETATM    8  C8  UNL     1     -31.754   7.590   3.321  1.00 20.00     0.010 C 
HETATM    9  C9  UNL     1     -33.923   8.210   2.071  1.00 20.00     0.010 C 
HETATM   10  C10 UNL     1     -32.512   6.281   1.281  1.00 20.00     0.010 C 
HETATM   11  C11 UNL     1     -32.986   7.062   2.534  1.00 20.00    -0.034 C 
HETATM   12  O12 UNL     1     -35.207   6.646   5.282  1.00 20.00    -0.298 OA
ENDROOT
TORSDOF 0
