REMARK  3 active torsions:
REMARK  status: ('A' for Active; 'I' for Inactive)
REMARK    1  A    between atoms: C7_7  and  C8_8 
REMARK    2  A    between atoms: C7_7  and  C9_9 
REMARK    3  A    between atoms: C9_9  and  S10_10 
ROOT
HETATM    1  C7  UNL     1     -33.341   6.630   3.987  1.00 20.00     0.028 C 
ENDROOT
BRANCH   1   2
HETATM    2  C8  UNL     1     -33.163   7.142   2.520  1.00 20.00    -0.050 C 
HETATM    3  C1  UNL     1     -32.913   8.651   2.412  1.00 20.00     0.014 C 
HETATM    4  C2  UNL     1     -31.920   6.421   1.939  1.00 20.00     0.014 C 
HETATM    5  C3  UNL     1     -34.358   6.758   1.627  1.00 20.00     0.014 C 
ENDBRANCH   1   2
BRANCH   1   6
HETATM    6  C9  UNL     1     -34.119   5.333   4.353  1.00 20.00     0.001 C 
HETATM    7  C4  UNL     1     -33.520   4.168   3.537  1.00 20.00     0.026 C 
HETATM    8  C5  UNL     1     -35.622   5.391   4.075  1.00 20.00     0.026 C 
BRANCH   6   9
HETATM    9  S10 UNL     1     -33.883   4.878   6.122  1.00 20.00    -0.164 SA
HETATM   10  C6  UNL     1     -34.639   6.347   6.847  1.00 20.00     0.090 C 
ENDBRANCH   6   9
ENDBRANCH   1   6
TORSDOF 3
