REMARK  1 active torsions:
REMARK  status: ('A' for Active; 'I' for Inactive)
REMARK    1  A    between atoms: C1_1  and  C7_7 
ROOT
HETATM    1  C2  UNL     1     -34.091   5.582   6.459  1.00 20.00     0.000 C 
HETATM    2  C3  UNL     1     -34.021   6.978   5.850  1.00 20.00     0.001 C 
HETATM    3  C4  UNL     1     -34.782   4.598   5.522  1.00 20.00     0.001 C 
HETATM    4  C5  UNL     1     -33.343   6.963   4.479  1.00 20.00     0.018 C 
HETATM    5  C6  UNL     1     -34.112   4.559   4.148  1.00 20.00     0.018 C 
HETATM    6  C7  UNL     1     -33.968   5.947   3.518  1.00 20.00     0.032 C 
HETATM    7  C8  UNL     1     -35.338   6.448   3.064  1.00 20.00     0.025 C 
ENDROOT
BRANCH   6   8
HETATM    8  C1  UNL     1     -33.185   5.877   2.207  1.00 20.00     0.227 C 
HETATM    9  O9  UNL     1     -32.662   4.836   1.822  1.00 20.00    -0.279 OA
HETATM   10 CL10 UNL     1     -33.147   7.408   1.385  1.00 20.00    -0.043 Cl
ENDBRANCH   6   8
TORSDOF 1
