REMARK  1 active torsions:
REMARK  status: ('A' for Active; 'I' for Inactive)
REMARK    1  A    between atoms: C1_1  and  C3_3 
ROOT
HETATM    1  C2  UNL     1     -34.714   6.332   3.416  1.00 20.00     0.067 A 
HETATM    2  C3  UNL     1     -33.976   5.869   4.656  1.00 20.00     0.083 A 
HETATM    3  C4  UNL     1     -33.269   5.927   3.301  1.00 20.00     0.132 A 
HETATM    4  C5  UNL     1     -34.379   4.534   5.237  1.00 20.00     0.030 C 
HETATM    5 CL8  UNL     1     -32.098   7.208   2.964  1.00 20.00    -0.100 Cl
HETATM    6 CL9  UNL     1     -32.898   4.440   2.427  1.00 20.00    -0.100 Cl
ENDROOT
BRANCH   2   7
HETATM    7  C1  UNL     1     -33.637   6.904   5.628  1.00 20.00     0.184 C 
HETATM    8  O6  UNL     1     -32.515   7.457   5.457  1.00 20.00    -0.647 OA
HETATM    9  O7  UNL     1     -34.515   7.108   6.512  1.00 20.00    -0.647 OA
ENDBRANCH   2   7
TORSDOF 1
