REMARK  2 active torsions:
REMARK  status: ('A' for Active; 'I' for Inactive)
REMARK    1  A    between atoms: C6_6  and  C7_7 
REMARK    2  A    between atoms: C6_6  and  C8_8 
ROOT
HETATM    1  C1  UNL     1     -33.882   6.265   5.297  1.00 20.00     0.068 C 
HETATM    2  C4  UNL     1     -33.869   4.545   3.567  1.00 20.00     0.031 C 
HETATM    3  C5  UNL     1     -36.014   5.640   4.228  1.00 20.00     0.031 C 
HETATM    4  C8  UNL     1     -34.512   5.875   4.014  1.00 20.00     0.042 C 
HETATM    5  N9  UNL     1     -33.384   6.562   6.302  1.00 20.00    -0.196 NA
ENDROOT
BRANCH   4   6
HETATM    6  C6  UNL     1     -34.237   6.939   2.915  1.00 20.00     0.027 C 
BRANCH   6   7
HETATM    7  C7  UNL     1     -32.874   6.909   2.183  1.00 20.00    -0.021 C 
HETATM    8  C2  UNL     1     -31.747   7.098   3.208  1.00 20.00     0.009 C 
HETATM    9  C3  UNL     1     -32.736   7.966   1.089  1.00 20.00     0.009 C 
ENDBRANCH   6   7
ENDBRANCH   4   6
TORSDOF 2
