REMARK  1 active torsions:
REMARK  status: ('A' for Active; 'I' for Inactive)
REMARK    1  A    between atoms: C2_2  and  C3_3 
ROOT
HETATM    1  C3  UNL     1     -33.643   6.071   3.956  1.00 20.00     0.101 C 
HETATM    2  C4  UNL     1     -33.735   4.830   3.458  1.00 20.00     0.288 C 
HETATM    3  F5  UNL     1     -34.164   3.808   4.231  1.00 20.00    -0.171 F 
HETATM    4  F6  UNL     1     -33.400   4.578   2.173  1.00 20.00    -0.171 F 
HETATM    5 CL7  UNL     1     -34.089   6.333   5.615  1.00 20.00    -0.079 Cl
ENDROOT
BRANCH   1   6
HETATM    6  C2  UNL     1     -33.186   7.192   3.154  1.00 20.00     0.019 C 
HETATM    7  C1  UNL     1     -32.191   7.194   2.258  1.00 20.00     0.013 C 
ENDBRANCH   1   6
TORSDOF 1
