REMARK  1 active torsions:
REMARK  status: ('A' for Active; 'I' for Inactive)
REMARK    1  A    between atoms: C3_3  and  C5_5 
ROOT
HETATM    1  C1  UNL     1     -33.181   7.169   4.878  1.00 20.00     0.065 A 
HETATM    2  C2  UNL     1     -34.559   5.142   5.086  1.00 20.00     0.069 A 
HETATM    3  C3  UNL     1     -33.187   6.426   3.718  1.00 20.00     0.026 A 
HETATM    4  C4  UNL     1     -33.985   5.252   3.839  1.00 20.00     0.031 A 
HETATM    5  S7  UNL     1     -34.134   6.451   6.105  1.00 20.00    -0.111 SA
HETATM    6 BR8  UNL     1     -34.220   4.001   2.446  1.00 20.00    -0.050 Br
ENDROOT
BRANCH   3   7
HETATM    7  C5  UNL     1     -32.449   6.845   2.552  1.00 20.00     0.271 C 
HETATM    8  O6  UNL     1     -32.648   7.919   1.964  1.00 20.00    -0.301 OA
ENDBRANCH   3   7
TORSDOF 1
