REMARK  2 active torsions:
REMARK  status: ('A' for Active; 'I' for Inactive)
REMARK    1  A    between atoms: C1_1  and  C5_5 
REMARK    2  A    between atoms: C5_5  and  C6_6 
ROOT
HETATM    1  C5  UNL     1     -34.535   6.722   3.344  1.00 20.00     0.104 C 
ENDROOT
BRANCH   1   2
HETATM    2  C1  UNL     1     -34.568   5.693   4.463  1.00 20.00     0.219 C 
HETATM    3  O7  UNL     1     -34.757   4.502   4.234  1.00 20.00    -0.280 OA
HETATM    4 CL8  UNL     1     -34.308   6.392   6.036  1.00 20.00    -0.044 Cl
ENDBRANCH   1   2
BRANCH   1   5
HETATM    5  C6  UNL     1     -33.150   6.929   2.688  1.00 20.00    -0.044 C 
HETATM    6  C2  UNL     1     -32.113   7.413   3.715  1.00 20.00     0.015 C 
HETATM    7  C3  UNL     1     -32.682   5.573   2.124  1.00 20.00     0.015 C 
HETATM    8  C4  UNL     1     -33.224   7.935   1.528  1.00 20.00     0.015 C 
ENDBRANCH   1   5
TORSDOF 2
