REMARK  2 active torsions:
REMARK  status: ('A' for Active; 'I' for Inactive)
REMARK    1  A    between atoms: C3_3  and  C4_4 
REMARK    2  A    between atoms: C4_4  and  C5_5 
ROOT
HETATM    1  C1  UNL     1     -33.269   9.332   1.114  1.00 20.00     0.012 C 
HETATM    2  C2  UNL     1     -32.803   8.283   1.468  1.00 20.00    -0.117 C 
HETATM    3  C3  UNL     1     -32.232   6.998   1.895  1.00 20.00     0.094 C 
ENDROOT
BRANCH   3   4
HETATM    4  C4  UNL     1     -32.493   6.709   3.376  1.00 20.00     0.027 C 
BRANCH   4   5
HETATM    5  C5  UNL     1     -33.966   6.590   3.765  1.00 20.00     0.115 C 
HETATM    6 CL6  UNL     1     -34.178   6.285   5.504  1.00 20.00    -0.130 Cl
ENDBRANCH   4   5
ENDBRANCH   3   4
TORSDOF 2
