REMARK  0 active torsions:
REMARK  status: ('A' for Active; 'I' for Inactive)
ROOT
HETATM    1  C1  UNL     1     -34.064   7.108   4.414  1.00 20.00     0.288 C 
HETATM    2  C2  UNL     1     -34.844   5.796   4.173  1.00 20.00     0.288 C 
HETATM    3  C3  UNL     1     -33.341   6.851   3.071  1.00 20.00     0.343 C 
HETATM    4  C4  UNL     1     -33.683   5.351   3.253  1.00 20.00     0.343 C 
HETATM    5  F5  UNL     1     -33.265   7.112   5.507  1.00 20.00    -0.240 F 
HETATM    6  F6  UNL     1     -35.058   5.028   5.264  1.00 20.00    -0.240 F 
HETATM    7  F7  UNL     1     -32.024   7.152   3.046  1.00 20.00    -0.196 F 
HETATM    8  F8  UNL     1     -33.900   7.442   1.990  1.00 20.00    -0.196 F 
HETATM    9  F9  UNL     1     -32.723   4.610   3.853  1.00 20.00    -0.196 F 
HETATM   10  F10 UNL     1     -34.042   4.692   2.130  1.00 20.00    -0.196 F 
ENDROOT
TORSDOF 0
