REMARK  0 active torsions:
REMARK  status: ('A' for Active; 'I' for Inactive)
REMARK       I    between atoms: C2_2  and  N4_4 
ROOT
HETATM    1  C1  UNL     1     -32.824   8.018   1.338  1.00 20.00     0.166 C 
HETATM    2  C2  UNL     1     -33.131   6.599   2.976  1.00 20.00     0.240 C 
HETATM    3  C3  UNL     1     -33.593   5.277   2.451  1.00 20.00     0.119 C 
HETATM    4  N4  UNL     1     -32.316   7.287   2.103  1.00 20.00    -0.200 NA
HETATM    5  O5  UNL     1     -33.498   6.951   4.093  1.00 20.00    -0.272 OA
HETATM    6  S6  UNL     1     -33.478   9.018   0.285  1.00 20.00    -0.055 SA
ENDROOT
TORSDOF 0
