REMARK  3 active torsions:
REMARK  status: ('A' for Active; 'I' for Inactive)
REMARK    1  A    between atoms: C2_2  and  C3_3 
REMARK    2  A    between atoms: C2_2  and  C4_4 
REMARK    3  A    between atoms: C3_3  and  O5_5 
ROOT
HETATM    1  C2  UNL     1     -33.743   5.635   2.886  1.00 20.00     0.379 C 
HETATM    2  F6  UNL     1     -32.740   4.831   2.434  1.00 20.00    -0.231 F 
ENDROOT
BRANCH   1   3
HETATM    3  C3  UNL     1     -34.119   5.172   4.280  1.00 20.00     0.393 C 
HETATM    4  F7  UNL     1     -33.299   4.157   4.652  1.00 20.00    -0.172 F 
HETATM    5  F8  UNL     1     -35.389   4.700   4.291  1.00 20.00    -0.172 F 
BRANCH   3   6
HETATM    6  O5  UNL     1     -34.000   6.228   5.225  1.00 20.00    -0.329 OA
HETATM    7  C1  UNL     1     -34.347   5.825   6.543  1.00 20.00     0.208 C 
ENDBRANCH   3   6
ENDBRANCH   1   3
BRANCH   1   8
HETATM    8  C4  UNL     1     -33.252   7.064   2.825  1.00 20.00     0.426 C 
HETATM    9  F9  UNL     1     -34.235   7.917   3.191  1.00 20.00    -0.168 F 
HETATM   10  F10 UNL     1     -32.866   7.404   1.577  1.00 20.00    -0.168 F 
HETATM   11  F11 UNL     1     -32.205   7.263   3.653  1.00 20.00    -0.168 F 
ENDBRANCH   1   8
TORSDOF 3
