REMARK  2 active torsions:
REMARK  status: ('A' for Active; 'I' for Inactive)
REMARK    1  A    between atoms: C1_1  and  C2_2 
REMARK    2  A    between atoms: C1_1  and  C3_3 
ROOT
HETATM    1  C1  UNL     1     -33.571   5.939   3.246  1.00 20.00     0.245 C 
HETATM    2  O4  UNL     1     -33.602   5.116   2.332  1.00 20.00    -0.287 OA
ENDROOT
BRANCH   1   3
HETATM    3  C2  UNL     1     -32.802   7.237   3.176  1.00 20.00     0.202 C 
HETATM    4 CL8  UNL     1     -31.985   7.398   1.614  1.00 20.00    -0.122 Cl
ENDBRANCH   1   3
BRANCH   1   5
HETATM    5  C3  UNL     1     -34.322   5.691   4.524  1.00 20.00     0.452 C 
HETATM    6  F5  UNL     1     -34.165   6.710   5.406  1.00 20.00    -0.163 F 
HETATM    7  F6  UNL     1     -33.901   4.561   5.145  1.00 20.00    -0.163 F 
HETATM    8  F7  UNL     1     -35.656   5.552   4.316  1.00 20.00    -0.163 F 
ENDBRANCH   1   5
TORSDOF 2
