REMARK  0 active torsions:
REMARK  status: ('A' for Active; 'I' for Inactive)
ROOT
HETATM    1  C1  UNL     1     -33.917   5.432   3.792  1.00 20.00     0.134 C 
HETATM    2  C2  UNL     1     -33.210   7.136   5.339  1.00 20.00     0.134 C 
HETATM    3  C3  UNL     1     -35.028   5.050   4.765  1.00 20.00     0.183 C 
HETATM    4  C4  UNL     1     -34.339   6.714   6.275  1.00 20.00     0.183 C 
HETATM    5  N5  UNL     1     -33.577   6.850   3.947  1.00 20.00    -0.224 NA
HETATM    6  O6  UNL     1     -34.630   5.326   6.108  1.00 20.00    -0.389 OA
HETATM    7 CL7  UNL     1     -32.317   7.356   2.815  1.00 20.00    -0.022 Cl
ENDROOT
TORSDOF 0
