REMARK  4 active torsions:
REMARK  status: ('A' for Active; 'I' for Inactive)
REMARK    1  A    between atoms: C1_1  and  C5_5 
REMARK    2  A    between atoms: C1_1  and  C8_8 
REMARK    3  A    between atoms: C6_6  and  C8_8 
REMARK    4  A    between atoms: C7_7  and  C8_8 
ROOT
HETATM    1  C8  UNL     1     -34.181   6.234   3.760  1.00 20.00     0.054 C 
ENDROOT
BRANCH   1   2
HETATM    2  C1  UNL     1     -33.194   6.044   2.603  1.00 20.00     0.130 C 
HETATM    3  O9  UNL     1     -32.661   4.957   2.378  1.00 20.00    -0.298 OA
BRANCH   2   4
HETATM    4  C5  UNL     1     -32.929   7.266   1.738  1.00 20.00     0.074 C 
HETATM    5  C2  UNL     1     -31.958   6.981   0.606  1.00 20.00     0.013 C 
ENDBRANCH   2   4
ENDBRANCH   1   2
BRANCH   1   6
HETATM    6  C6  UNL     1     -33.484   6.738   5.034  1.00 20.00     0.007 C 
HETATM    7  C3  UNL     1     -34.466   6.999   6.170  1.00 20.00     0.006 C 
ENDBRANCH   1   6
BRANCH   1   8
HETATM    8  C7  UNL     1     -34.977   4.938   3.994  1.00 20.00     0.007 C 
HETATM    9  C4  UNL     1     -34.145   3.743   4.442  1.00 20.00     0.006 C 
ENDBRANCH   1   8
TORSDOF 4
