REMARK  5 active torsions:
REMARK  status: ('A' for Active; 'I' for Inactive)
REMARK    1  A    between atoms: C1_1  and  C2_2 
REMARK    2  A    between atoms: C1_1  and  C3_3 
REMARK    3  A    between atoms: C2_2  and  P11_11 
REMARK    4  A    between atoms: C8_8  and  P11_11 
REMARK    5  A    between atoms: C9_9  and  P11_11 
ROOT
HETATM    1  O10 UNL     1     -32.988   4.887   2.872  1.00 20.00    -0.317 OA
HETATM    2  P11 UNL     1     -33.798   6.032   3.424  1.00 20.00     0.105 P 
ENDROOT
BRANCH   2   3
HETATM    3  C2  UNL     1     -34.472   7.286   2.430  1.00 20.00     0.096 C 
BRANCH   3   4
HETATM    4  C1  UNL     1     -33.789   7.696   1.403  1.00 20.00    -0.141 C 
BRANCH   4   5
HETATM    5  C3  UNL     1     -33.108   8.111   0.371  1.00 20.00     0.026 C 
HETATM    6  C4  UNL     1     -31.764   7.543   0.014  1.00 20.00     0.030 C 
HETATM    7  C5  UNL     1     -33.615   9.191  -0.542  1.00 20.00     0.030 C 
ENDBRANCH   4   5
ENDBRANCH   3   4
ENDBRANCH   2   3
BRANCH   2   8
HETATM    8  C8  UNL     1     -32.861   6.934   4.660  1.00 20.00     0.073 C 
HETATM    9  C6  UNL     1     -33.729   7.868   5.476  1.00 20.00     0.013 C 
ENDBRANCH   2   8
BRANCH   2  10
HETATM   10  C9  UNL     1     -35.211   5.423   4.347  1.00 20.00     0.073 C 
HETATM   11  C7  UNL     1     -34.842   4.301   5.295  1.00 20.00     0.013 C 
ENDBRANCH   2  10
TORSDOF 5
