REMARK  4 active torsions:
REMARK  status: ('A' for Active; 'I' for Inactive)
REMARK    1  A    between atoms: C1_1  and  C4_4 
REMARK    2  A    between atoms: C2_2  and  C8_8 
REMARK    3  A    between atoms: C8_8  and  C9_9 
REMARK    4  A    between atoms: C8_8  and  O10_10 
ROOT
HETATM    1  C8  UNL     1     -33.617   5.530   3.020  1.00 20.00     0.200 C 
ENDROOT
BRANCH   1   2
HETATM    2  C2  UNL     1     -33.262   6.681   2.178  1.00 20.00    -0.069 C 
HETATM    3  C1  UNL     1     -32.970   7.623   1.492  1.00 20.00    -0.070 C 
BRANCH   3   4
HETATM    4  C4  UNL     1     -32.625   8.743   0.678  1.00 20.00    -0.018 C 
HETATM    5  C3  UNL     1     -33.016   9.971   1.052  1.00 20.00     0.028 C 
HETATM    6  C5  UNL     1     -31.833   8.513  -0.575  1.00 20.00     0.057 C 
ENDBRANCH   3   4
ENDBRANCH   1   2
BRANCH   1   7
HETATM    7  C9  UNL     1     -34.412   5.920   4.285  1.00 20.00     0.018 C 
HETATM    8  C6  UNL     1     -33.680   6.939   5.166  1.00 20.00     0.013 C 
HETATM    9  C7  UNL     1     -34.817   4.695   5.109  1.00 20.00     0.013 C 
ENDBRANCH   1   7
BRANCH   1  10
HETATM   10  O10 UNL     1     -34.375   4.609   2.238  1.00 20.00    -0.383 OA
HETATM   11  H24 UNL     1     -33.807   4.343   1.499  1.00 20.00     0.211 HD
ENDBRANCH   1  10
TORSDOF 4
