REMARK  2 active torsions:
REMARK  status: ('A' for Active; 'I' for Inactive)
REMARK    1  A    between atoms: C1_1  and  C5_5 
REMARK    2  A    between atoms: C4_4  and  C5_5 
ROOT
HETATM    1  C1  UNL     1     -33.600   5.811   3.693  1.00 20.00     0.164 C 
HETATM    2  C2  UNL     1     -34.150   6.215   4.842  1.00 20.00     0.301 C 
HETATM    3  F7  UNL     1     -34.188   4.781   3.041  1.00 20.00    -0.205 F 
HETATM    4  F8  UNL     1     -35.259   5.600   5.305  1.00 20.00    -0.170 F 
HETATM    5  F9  UNL     1     -33.610   7.234   5.544  1.00 20.00    -0.170 F 
ENDROOT
BRANCH   1   6
HETATM    6  C5  UNL     1     -32.368   6.412   3.085  1.00 20.00     0.110 C 
BRANCH   6   7
HETATM    7  C4  UNL     1     -32.558   6.935   1.693  1.00 20.00     0.151 A 
HETATM    8  C3  UNL     1     -31.795   8.134   1.202  1.00 20.00     0.200 A 
HETATM    9  O6  UNL     1     -33.165   8.230   1.623  1.00 20.00    -0.381 OA
ENDBRANCH   6   7
ENDBRANCH   1   6
TORSDOF 2
