REMARK  2 active torsions:
REMARK  status: ('A' for Active; 'I' for Inactive)
REMARK    1  A    between atoms: C3_3  and  C7_7 
REMARK    2  A    between atoms: C7_7  and  C8_8 
ROOT
HETATM    1  C1  UNL     1     -33.272   4.912   2.599  1.00 20.00     0.263 C 
HETATM    2  C2  UNL     1     -33.372   6.782   4.006  1.00 20.00     0.046 C 
HETATM    3  C3  UNL     1     -32.492   6.157   2.941  1.00 20.00     0.088 C 
HETATM    4  C4  UNL     1     -33.950   5.561   4.688  1.00 20.00     0.128 C 
HETATM    5  C5  UNL     1     -35.279   5.828   5.368  1.00 20.00     0.040 C 
HETATM    6  O9  UNL     1     -33.156   4.245   1.583  1.00 20.00    -0.265 OA
HETATM    7  O10 UNL     1     -34.128   4.613   3.627  1.00 20.00    -0.316 OA
ENDROOT
BRANCH   3   8
HETATM    8  C7  UNL     1     -32.280   7.066   1.745  1.00 20.00     0.014 C 
BRANCH   8   9
HETATM    9  C8  UNL     1     -33.609   7.503   1.128  1.00 20.00    -0.004 C 
HETATM   10  C6  UNL     1     -33.398   8.437  -0.052  1.00 20.00     0.005 C 
ENDBRANCH   8   9
ENDBRANCH   3   8
TORSDOF 2
