REMARK  3 active torsions:
REMARK  status: ('A' for Active; 'I' for Inactive)
REMARK    1  A    between atoms: C2_2  and  O5_5 
REMARK    2  A    between atoms: C3_3  and  C4_4 
REMARK    3  A    between atoms: C3_3  and  O5_5 
ROOT
HETATM    1  C3  UNL     1     -33.151   6.743   2.976  1.00 20.00     0.454 C 
HETATM    2  F6  UNL     1     -32.566   5.717   2.313  1.00 20.00    -0.166 F 
HETATM    3  F7  UNL     1     -32.196   7.365   3.707  1.00 20.00    -0.166 F 
ENDROOT
BRANCH   1   4
HETATM    4  C4  UNL     1     -34.225   6.216   3.884  1.00 20.00     0.484 C 
HETATM    5  F8  UNL     1     -35.181   5.577   3.177  1.00 20.00    -0.163 F 
HETATM    6  F9  UNL     1     -33.720   5.342   4.780  1.00 20.00    -0.163 F 
HETATM    7  F10 UNL     1     -34.818   7.217   4.569  1.00 20.00    -0.163 F 
ENDBRANCH   1   4
BRANCH   1   8
HETATM    8  O5  UNL     1     -33.699   7.660   2.037  1.00 20.00    -0.319 OA
BRANCH   8   9
HETATM    9  C2  UNL     1     -32.719   8.186   1.154  1.00 20.00     0.170 C 
HETATM   10  C1  UNL     1     -33.386   9.148   0.194  1.00 20.00     0.033 C 
ENDBRANCH   8   9
ENDBRANCH   1   8
TORSDOF 3
