REMARK  1 active torsions:
REMARK  status: ('A' for Active; 'I' for Inactive)
REMARK    1  A    between atoms: C2_2  and  C7_7 
ROOT
HETATM    1  C1  UNL     1     -33.145   7.686   2.191  1.00 20.00    -0.110 C 
HETATM    2  C2  UNL     1     -33.442   6.980   3.116  1.00 20.00    -0.098 C 
HETATM    3  C3  UNL     1     -32.784   8.547   1.065  1.00 20.00     0.112 C 
ENDROOT
BRANCH   2   4
HETATM    4  C7  UNL     1     -33.808   6.109   4.255  1.00 20.00     0.013 C 
HETATM    5  C4  UNL     1     -35.313   5.808   4.203  1.00 20.00     0.028 C 
HETATM    6  C5  UNL     1     -33.473   6.824   5.571  1.00 20.00     0.028 C 
HETATM    7  C6  UNL     1     -33.019   4.796   4.168  1.00 20.00     0.028 C 
ENDBRANCH   2   4
TORSDOF 1
