REMARK  0 active torsions:
REMARK  status: ('A' for Active; 'I' for Inactive)
ROOT
HETATM    1  C1  UNL     1     -32.282   7.802   1.221  1.00 20.00     0.014 C 
HETATM    2  C2  UNL     1     -32.697   7.151   2.140  1.00 20.00    -0.091 C 
HETATM    3  C3  UNL     1     -34.588   5.486   5.622  1.00 20.00     0.000 C 
HETATM    4  C4  UNL     1     -35.334   5.348   4.295  1.00 20.00     0.003 C 
HETATM    5  C5  UNL     1     -33.848   6.810   5.729  1.00 20.00     0.003 C 
HETATM    6  C6  UNL     1     -34.726   6.173   3.154  1.00 20.00     0.039 C 
HETATM    7  C7  UNL     1     -32.819   7.008   4.609  1.00 20.00     0.039 C 
HETATM    8  C8  UNL     1     -33.206   6.352   3.268  1.00 20.00     0.099 C 
HETATM    9 CL9  UNL     1     -32.403   4.744   3.116  1.00 20.00    -0.105 Cl
ENDROOT
TORSDOF 0
