REMARK  1 active torsions:
REMARK  status: ('A' for Active; 'I' for Inactive)
REMARK    1  A    between atoms: C4_4  and  N7_7 
ROOT
HETATM    1  C1  UNL     1     -32.696   7.740   1.304  1.00 20.00     0.163 C 
HETATM    2  N7  UNL     1     -32.215   7.369   2.323  1.00 20.00    -0.231 NA
HETATM    3  S9  UNL     1     -33.331   8.247  -0.067  1.00 20.00    -0.055 SA
ENDROOT
BRANCH   2   4
HETATM    4  C4  UNL     1     -33.008   6.474   3.023  1.00 20.00     0.094 A 
HETATM    5  C2  UNL     1     -33.469   5.216   2.590  1.00 20.00     0.171 A 
HETATM    6  N6  UNL     1     -34.217   4.597   3.507  1.00 20.00    -0.183 NA
HETATM    7  N8  UNL     1     -34.230   5.469   4.529  1.00 20.00    -0.283 N 
HETATM    8  C3  UNL     1     -33.522   6.610   4.290  1.00 20.00     0.145 A 
HETATM    9  C5  UNL     1     -34.955   5.148   5.736  1.00 20.00     0.179 C 
ENDBRANCH   2   4
TORSDOF 1
