REMARK  3 active torsions:
REMARK  status: ('A' for Active; 'I' for Inactive)
REMARK    1  A    between atoms: C5_5  and  C6_6 
REMARK    2  A    between atoms: C5_5  and  N8_8 
REMARK    3  A    between atoms: C6_6  and  N9_9 
ROOT
HETATM    1  C1  UNL     1     -32.542   7.714   1.562  1.00 20.00     0.157 C 
HETATM    2  N8  UNL     1     -32.236   6.965   2.412  1.00 20.00    -0.274 NA
HETATM    3  S10 UNL     1     -32.943   8.753   0.423  1.00 20.00    -0.055 SA
ENDROOT
BRANCH   2   4
HETATM    4  C5  UNL     1     -32.635   5.575   2.181  1.00 20.00     0.172 C 
BRANCH   4   5
HETATM    5  C6  UNL     1     -34.019   5.326   2.769  1.00 20.00     0.172 C 
BRANCH   5   6
HETATM    6  N9  UNL     1     -34.091   5.602   4.201  1.00 20.00    -0.280 N 
HETATM    7  C4  UNL     1     -33.147   6.240   4.951  1.00 20.00     0.113 A 
HETATM    8  C2  UNL     1     -33.642   6.271   6.231  1.00 20.00     0.040 A 
HETATM    9  C3  UNL     1     -34.890   5.625   6.142  1.00 20.00     0.140 A 
HETATM   10  N7  UNL     1     -35.169   5.213   4.903  1.00 20.00    -0.185 NA
ENDBRANCH   5   6
ENDBRANCH   4   5
ENDBRANCH   2   4
TORSDOF 3
