REMARK  1 active torsions:
REMARK  status: ('A' for Active; 'I' for Inactive)
REMARK    1  A    between atoms: C1_1  and  C4_4 
ROOT
HETATM    1  C1  UNL     1     -32.821   7.020   1.862  1.00 20.00    -0.080 C 
HETATM    2  C2  UNL     1     -32.744   7.995   1.165  1.00 20.00    -0.106 C 
HETATM    3  C5  UNL     1     -32.652   9.181   0.316  1.00 20.00     0.112 C 
ENDROOT
BRANCH   1   4
HETATM    4  C4  UNL     1     -32.910   5.871   2.692  1.00 20.00     0.054 C 
HETATM    5  C3  UNL     1     -33.106   4.649   2.187  1.00 20.00     0.020 C 
ENDBRANCH   1   4
TORSDOF 1
