REMARK  1 active torsions:
REMARK  status: ('A' for Active; 'I' for Inactive)
REMARK    1  A    between atoms: C2_2  and  C3_3 
ROOT
HETATM    1  C1  UNL     1     -33.245   6.990   5.013  1.00 20.00     0.101 A 
HETATM    2  C2  UNL     1     -33.797   6.114   4.100  1.00 20.00     0.118 A 
HETATM    3  N4  UNL     1     -34.860   5.357   4.568  1.00 20.00    -0.166 NA
HETATM    4  N5  UNL     1     -35.137   5.636   5.831  1.00 20.00    -0.037 NA
HETATM    5  S7  UNL     1     -34.127   6.809   6.473  1.00 20.00    -0.008 SA
ENDROOT
BRANCH   2   6
HETATM    6  C3  UNL     1     -33.336   5.963   2.750  1.00 20.00     0.292 C 
HETATM    7  O6  UNL     1     -32.389   6.610   2.264  1.00 20.00    -0.300 OA
ENDBRANCH   2   6
TORSDOF 1
