REMARK  2 active torsions:
REMARK  status: ('A' for Active; 'I' for Inactive)
REMARK    1  A    between atoms: C7_7  and  C10_10 
REMARK    2  A    between atoms: C8_8  and  C9_9 
ROOT
HETATM    1  C1  UNL     1     -33.478   4.537   3.373  1.00 20.00    -0.019 A 
HETATM    2  C3  UNL     1     -34.202   4.738   4.480  1.00 20.00    -0.087 A 
HETATM    3  C5  UNL     1     -34.856   6.085   4.505  1.00 20.00     0.039 A 
HETATM    4  C8  UNL     1     -33.527   5.701   2.438  1.00 20.00     0.021 A 
HETATM    5  C10 UNL     1     -34.431   6.742   3.184  1.00 20.00     0.005 A 
HETATM    6  C11 UNL     1     -34.376   3.786   5.609  1.00 20.00     0.043 C 
ENDROOT
BRANCH   4   7
HETATM    7  C9  UNL     1     -32.192   6.470   2.268  1.00 20.00     0.022 C 
HETATM    8  C4  UNL     1     -32.458   7.608   1.303  1.00 20.00    -0.082 C 
HETATM    9  C2  UNL     1     -33.228   8.503   1.944  1.00 20.00    -0.019 C 
HETATM   10  C12 UNL     1     -31.965   7.622  -0.092  1.00 20.00     0.043 C 
HETATM   11  C7  UNL     1     -33.480   7.960   3.335  1.00 20.00     0.014 C 
HETATM   12  C6  UNL     1     -32.117   7.295   3.561  1.00 20.00     0.018 C 
ENDBRANCH   4   7
TORSDOF 2
