REMARK  2 active torsions:
REMARK  status: ('A' for Active; 'I' for Inactive)
REMARK    1  A    between atoms: C5_5  and  C6_6 
REMARK    2  A    between atoms: C6_6  and  N7_7 
ROOT
HETATM    1  C1  UNL     1     -32.842   7.988   1.935  1.00 20.00     0.158 C 
HETATM    2  N7  UNL     1     -32.484   7.105   2.619  1.00 20.00    -0.270 NA
HETATM    3  S8  UNL     1     -33.298   9.203   1.012  1.00 20.00    -0.055 SA
ENDROOT
BRANCH   2   4
HETATM    4  C6  UNL     1     -33.476   6.039   2.815  1.00 20.00     0.109 C 
HETATM    5  C4  UNL     1     -32.916   4.752   2.218  1.00 20.00     0.035 C 
BRANCH   4   6
HETATM    6  C5  UNL     1     -33.836   5.914   4.310  1.00 20.00     0.002 C 
HETATM    7  C2  UNL     1     -34.898   4.831   4.530  1.00 20.00     0.011 C 
HETATM    8  C3  UNL     1     -34.298   7.228   4.947  1.00 20.00     0.011 C 
ENDBRANCH   4   6
ENDBRANCH   2   4
TORSDOF 2
