REMARK  3 active torsions:
REMARK  status: ('A' for Active; 'I' for Inactive)
REMARK    1  A    between atoms: C1_1  and  C7_7 
REMARK    2  A    between atoms: C5_5  and  C6_6 
REMARK    3  A    between atoms: C6_6  and  C7_7 
ROOT
HETATM    1  C3  UNL     1     -32.727   5.321   2.690  1.00 20.00     0.024 C 
HETATM    2  C4  UNL     1     -32.002   7.294   4.016  1.00 20.00     0.024 C 
HETATM    3  C7  UNL     1     -33.190   6.684   3.242  1.00 20.00     0.029 C 
ENDROOT
BRANCH   3   4
HETATM    4  C1  UNL     1     -34.369   6.461   4.217  1.00 20.00     0.226 C 
HETATM    5  O8  UNL     1     -35.419   5.933   3.856  1.00 20.00    -0.279 OA
HETATM    6 CL9  UNL     1     -34.076   7.022   5.847  1.00 20.00    -0.043 Cl
ENDBRANCH   3   4
BRANCH   3   7
HETATM    7  C6  UNL     1     -33.588   7.604   2.059  1.00 20.00     0.017 C 
BRANCH   7   8
HETATM    8  C5  UNL     1     -32.490   7.819   1.010  1.00 20.00    -0.003 C 
HETATM    9  C2  UNL     1     -32.995   8.661  -0.153  1.00 20.00     0.005 C 
ENDBRANCH   7   8
ENDBRANCH   3   7
TORSDOF 3
