REMARK  5 active torsions:
REMARK  status: ('A' for Active; 'I' for Inactive)
REMARK    1  A    between atoms: C1_1  and  C8_8 
REMARK    2  A    between atoms: C4_4  and  C6_6 
REMARK    3  A    between atoms: C5_5  and  C7_7 
REMARK    4  A    between atoms: C6_6  and  C8_8 
REMARK    5  A    between atoms: C7_7  and  C8_8 
ROOT
HETATM    1  C8  UNL     1     -33.198   6.608   3.752  1.00 20.00     0.072 C 
ENDROOT
BRANCH   1   2
HETATM    2  C1  UNL     1     -34.117   5.456   3.349  1.00 20.00     0.223 C 
HETATM    3  O9  UNL     1     -35.321   5.469   3.594  1.00 20.00    -0.279 OA
HETATM    4 CL10 UNL     1     -33.270   4.174   2.530  1.00 20.00    -0.043 Cl
ENDBRANCH   1   2
BRANCH   1   5
HETATM    5  C6  UNL     1     -33.132   7.643   2.611  1.00 20.00     0.013 C 
BRANCH   5   6
HETATM    6  C4  UNL     1     -32.228   7.253   1.436  1.00 20.00    -0.004 C 
HETATM    7  C2  UNL     1     -32.235   8.265   0.300  1.00 20.00     0.005 C 
ENDBRANCH   5   6
ENDBRANCH   1   5
BRANCH   1   8
HETATM    8  C7  UNL     1     -33.736   7.277   5.034  1.00 20.00     0.013 C 
BRANCH   8   9
HETATM    9  C5  UNL     1     -33.366   6.563   6.339  1.00 20.00    -0.004 C 
HETATM   10  C3  UNL     1     -33.931   5.155   6.444  1.00 20.00     0.005 C 
ENDBRANCH   8   9
ENDBRANCH   1   8
TORSDOF 5
