REMARK  1 active torsions:
REMARK  status: ('A' for Active; 'I' for Inactive)
REMARK    1  A    between atoms: C1_1  and  C4_4 
ROOT
HETATM    1  C3  UNL     1     -33.216   6.976   4.579  1.00 20.00    -0.024 C 
HETATM    2  C4  UNL     1     -33.480   6.327   3.426  1.00 20.00    -0.066 C 
HETATM    3  C6  UNL     1     -33.569   6.581   5.978  1.00 20.00     0.036 C 
HETATM    4  C7  UNL     1     -34.224   5.019   3.346  1.00 20.00     0.048 C 
ENDROOT
BRANCH   2   5
HETATM    5  C1  UNL     1     -33.023   6.922   2.168  1.00 20.00     0.002 C 
HETATM    6  C2  UNL     1     -33.045   8.224   1.838  1.00 20.00    -0.030 C 
HETATM    7  C5  UNL     1     -32.558   8.751   0.527  1.00 20.00     0.036 C 
ENDBRANCH   2   5
TORSDOF 1
