REMARK  2 active torsions:
REMARK  status: ('A' for Active; 'I' for Inactive)
REMARK    1  A    between atoms: C1_1  and  C4_4 
REMARK    2  A    between atoms: C3_3  and  C4_4 
ROOT
HETATM    1  C4  UNL     1     -32.976   6.988   3.271  1.00 20.00     0.359 C 
HETATM    2  F10 UNL     1     -31.625   7.160   3.293  1.00 20.00    -0.192 F 
HETATM    3  F11 UNL     1     -33.505   8.216   3.016  1.00 20.00    -0.192 F 
ENDROOT
BRANCH   1   4
HETATM    4  C1  UNL     1     -33.437   6.435   4.583  1.00 20.00     0.238 C 
HETATM    5  C2  UNL     1     -34.078   5.274   4.747  1.00 20.00     0.307 C 
HETATM    6  F6  UNL     1     -34.455   4.857   5.974  1.00 20.00    -0.170 F 
HETATM    7  F7  UNL     1     -34.356   4.509   3.670  1.00 20.00    -0.170 F 
HETATM    8  F5  UNL     1     -33.199   7.178   5.691  1.00 20.00    -0.198 F 
ENDBRANCH   1   4
BRANCH   1   9
HETATM    9  C3  UNL     1     -33.319   6.072   2.117  1.00 20.00     0.432 C 
HETATM   10  F8  UNL     1     -32.835   6.579   0.957  1.00 20.00    -0.207 F 
HETATM   11  F9  UNL     1     -32.708   4.874   2.302  1.00 20.00    -0.207 F 
ENDBRANCH   1   9
TORSDOF 2
