REMARK  1 active torsions:
REMARK  status: ('A' for Active; 'I' for Inactive)
REMARK    1  A    between atoms: C2_2  and  C3_3 
ROOT
HETATM    1  C1  UNL     1     -33.071   7.420   2.491  1.00 20.00    -0.019 C 
HETATM    2  C2  UNL     1     -33.348   6.253   3.101  1.00 20.00    -0.004 C 
HETATM    3  C4  UNL     1     -32.477   7.620   1.132  1.00 20.00     0.036 C 
HETATM    4  C5  UNL     1     -33.073   4.892   2.520  1.00 20.00     0.053 C 
ENDROOT
BRANCH   2   5
HETATM    5  C3  UNL     1     -33.982   6.235   4.479  1.00 20.00     0.247 C 
HETATM    6  O6  UNL     1     -33.733   7.174   5.238  1.00 20.00    -0.274 OA
HETATM    7 CL7  UNL     1     -35.040   4.918   4.955  1.00 20.00    -0.039 Cl
ENDBRANCH   2   5
TORSDOF 1
