REMARK  4 active torsions:
REMARK  status: ('A' for Active; 'I' for Inactive)
REMARK    1  A    between atoms: C3_3  and  C5_5 
REMARK    2  A    between atoms: C4_4  and  C6_6 
REMARK    3  A    between atoms: C5_5  and  C7_7 
REMARK    4  A    between atoms: C6_6  and  C7_7 
ROOT
HETATM    1  C1  UNL     1     -34.825   5.768   5.229  1.00 20.00     0.059 C 
HETATM    2  C4  UNL     1     -35.107   5.003   4.007  1.00 20.00     0.124 C 
HETATM    3  N8  UNL     1     -34.603   6.373   6.194  1.00 20.00    -0.197 NA
ENDROOT
BRANCH   2   4
HETATM    4  C6  UNL     1     -33.835   4.438   3.372  1.00 20.00     0.014 C 
BRANCH   4   5
HETATM    5  C7  UNL     1     -32.869   5.535   2.905  1.00 20.00     0.006 C 
BRANCH   5   6
HETATM    6  C5  UNL     1     -33.508   6.519   1.915  1.00 20.00     0.050 C 
BRANCH   6   7
HETATM    7  C3  UNL     1     -32.615   7.655   1.502  1.00 20.00     0.002 C 
HETATM    8  C2  UNL     1     -32.714   8.300   0.333  1.00 20.00     0.032 C 
HETATM    9 CL9  UNL     1     -31.436   8.159   2.665  1.00 20.00    -0.090 Cl
ENDBRANCH   6   7
ENDBRANCH   5   6
ENDBRANCH   4   5
ENDBRANCH   2   4
TORSDOF 4
