REMARK  0 active torsions:
REMARK  status: ('A' for Active; 'I' for Inactive)
ROOT
HETATM    1  C1  UNL     1     -34.592   6.274   6.208  1.00 20.00     0.000 C 
HETATM    2  C2  UNL     1     -33.446   6.907   5.417  1.00 20.00     0.001 C 
HETATM    3  C3  UNL     1     -34.809   4.815   5.806  1.00 20.00     0.001 C 
HETATM    4  C4  UNL     1     -33.666   6.773   3.911  1.00 20.00     0.009 C 
HETATM    5  C5  UNL     1     -35.031   4.677   4.301  1.00 20.00     0.009 C 
HETATM    6  C6  UNL     1     -32.715   4.481   3.139  1.00 20.00     0.010 A 
HETATM    7  C7  UNL     1     -33.697   4.926   2.094  1.00 20.00     0.010 A 
HETATM    8  C8  UNL     1     -33.902   5.329   3.536  1.00 20.00    -0.040 A 
ENDROOT
TORSDOF 0
