REMARK  2 active torsions:
REMARK  status: ('A' for Active; 'I' for Inactive)
REMARK    1  A    between atoms: C2_2  and  C6_6 
REMARK    2  A    between atoms: C2_2  and  O9_9 
ROOT
HETATM    1  C1  UNL     1     -34.059   6.194   5.514  1.00 20.00     0.079 C 
HETATM    2  C3  UNL     1     -35.810   5.749   3.856  1.00 20.00     0.042 C 
HETATM    3  C4  UNL     1     -34.178   3.951   4.531  1.00 20.00     0.042 C 
HETATM    4  C6  UNL     1     -34.363   5.451   4.269  1.00 20.00     0.129 C 
HETATM    5  N7  UNL     1     -33.823   6.775   6.491  1.00 20.00    -0.196 NA
ENDROOT
BRANCH   4   6
HETATM    6  C2  UNL     1     -33.410   5.899   3.156  1.00 20.00     0.280 C 
HETATM    7  O8  UNL     1     -32.633   5.159   2.565  1.00 20.00    -0.263 OA
BRANCH   6   8
HETATM    8  O9  UNL     1     -33.550   7.238   2.919  1.00 20.00    -0.325 OA
HETATM    9  C5  UNL     1     -32.708   7.778   1.896  1.00 20.00     0.213 C 
ENDBRANCH   6   8
ENDBRANCH   4   6
TORSDOF 2
