REMARK  1 active torsions:
REMARK  status: ('A' for Active; 'I' for Inactive)
REMARK    1  A    between atoms: C1_1  and  C6_6 
ROOT
HETATM    1  C2  UNL     1     -31.898   5.869   2.599  1.00 20.00     0.005 C 
HETATM    2  C3  UNL     1     -33.315   5.330   2.355  1.00 20.00     0.006 C 
HETATM    3  C4  UNL     1     -32.740   7.344   4.438  1.00 20.00     0.017 C 
HETATM    4  C5  UNL     1     -33.369   7.690   2.162  1.00 20.00     0.010 C 
HETATM    5  C6  UNL     1     -34.175   6.837   4.221  1.00 20.00     0.059 C 
HETATM    6  C7  UNL     1     -32.152   7.327   3.014  1.00 20.00    -0.013 C 
HETATM    7  C8  UNL     1     -34.210   6.533   2.708  1.00 20.00    -0.003 C 
ENDROOT
BRANCH   5   8
HETATM    8  C1  UNL     1     -34.525   5.662   5.079  1.00 20.00     0.127 C 
HETATM    9  C9  UNL     1     -34.470   5.872   6.568  1.00 20.00     0.091 C 
HETATM   10  O10 UNL     1     -34.845   4.580   4.591  1.00 20.00    -0.298 OA
ENDBRANCH   5   8
TORSDOF 1
