REMARK  2 active torsions:
REMARK  status: ('A' for Active; 'I' for Inactive)
REMARK    1  A    between atoms: C5_5  and  C7_7 
REMARK    2  A    between atoms: C6_6  and  O10_10 
ROOT
HETATM    1  C1  UNL     1     -35.238   5.316   3.801  1.00 20.00     0.006 A 
HETATM    2  C2  UNL     1     -33.844   6.795   5.287  1.00 20.00     0.006 A 
HETATM    3  C3  UNL     1     -34.323   5.430   2.826  1.00 20.00    -0.008 A 
HETATM    4  C4  UNL     1     -32.927   6.912   4.315  1.00 20.00    -0.008 A 
HETATM    5  C6  UNL     1     -35.100   5.985   5.138  1.00 20.00     0.163 A 
HETATM    6  C7  UNL     1     -33.049   6.219   2.983  1.00 20.00     0.044 A 
HETATM    7  C8  UNL     1     -31.831   5.330   2.725  1.00 20.00     0.031 C 
ENDROOT
BRANCH   6   8
HETATM    8  C5  UNL     1     -33.120   7.316   1.957  1.00 20.00     0.248 C 
HETATM    9  O9  UNL     1     -32.297   7.456   1.058  1.00 20.00    -0.305 OA
ENDBRANCH   6   8
BRANCH   5  10
HETATM   10  O10 UNL     1     -35.131   4.976   6.144  1.00 20.00    -0.388 OA
HETATM   11  H20 UNL     1     -35.986   4.525   6.057  1.00 20.00     0.210 HD
ENDBRANCH   5  10
TORSDOF 2
