REMARK  0 active torsions:
REMARK  status: ('A' for Active; 'I' for Inactive)
ROOT
HETATM    1  C1  UNL     1     -33.170   4.951   2.380  1.00 20.00    -0.003 A 
HETATM    2  C2  UNL     1     -33.053   6.390   2.516  1.00 20.00    -0.003 A 
HETATM    3  C3  UNL     1     -33.785   4.476   3.479  1.00 20.00    -0.013 A 
HETATM    4  C4  UNL     1     -33.601   6.744   3.694  1.00 20.00    -0.013 A 
HETATM    5  C5  UNL     1     -34.028   5.419   5.888  1.00 20.00     0.019 A 
HETATM    6  C6  UNL     1     -35.367   5.592   5.213  1.00 20.00     0.019 A 
HETATM    7  C7  UNL     1     -34.112   5.567   4.406  1.00 20.00    -0.005 A 
ENDROOT
TORSDOF 0
