REMARK  0 active torsions:
REMARK  status: ('A' for Active; 'I' for Inactive)
ROOT
HETATM    1  C1  UNL     1     -32.744   5.473   2.518  1.00 20.00     0.027 A 
HETATM    2  C2  UNL     1     -33.437   6.709   2.004  1.00 20.00     0.027 A 
HETATM    3  C3  UNL     1     -33.447   6.402   3.488  1.00 20.00     0.120 A 
HETATM    4  C4  UNL     1     -33.273   4.125   2.164  1.00 20.00     0.014 C 
HETATM    5  C5  UNL     1     -32.634   7.819   1.414  1.00 20.00     0.014 C 
HETATM    6 CL6  UNL     1     -34.985   5.929   4.210  1.00 20.00    -0.101 Cl
HETATM    7 CL7  UNL     1     -32.439   7.337   4.592  1.00 20.00    -0.101 Cl
ENDROOT
TORSDOF 0
