REMARK  1 active torsions:
REMARK  status: ('A' for Active; 'I' for Inactive)
REMARK    1  A    between atoms: C1_1  and  C6_6 
ROOT
HETATM    1  C2  UNL     1     -33.184   7.087   2.880  1.00 20.00     0.038 C 
HETATM    2  C3  UNL     1     -35.084   5.832   3.985  1.00 20.00     0.038 C 
HETATM    3  C4  UNL     1     -32.556   5.724   2.606  1.00 20.00     0.168 C 
HETATM    4  C5  UNL     1     -34.329   4.553   3.639  1.00 20.00     0.168 C 
HETATM    5  C6  UNL     1     -34.172   7.052   4.041  1.00 20.00     0.051 C 
HETATM    6  O8  UNL     1     -33.560   4.724   2.451  1.00 20.00    -0.391 OA
ENDROOT
BRANCH   5   7
HETATM    7  C1  UNL     1     -33.406   7.039   5.354  1.00 20.00     0.235 C 
HETATM    8  O7  UNL     1     -33.835   6.524   6.381  1.00 20.00    -0.306 OA
ENDBRANCH   5   7
TORSDOF 1
