REMARK  0 active torsions:
REMARK  status: ('A' for Active; 'I' for Inactive)
ROOT
HETATM    1  C1  UNL     1     -32.342   6.843   3.188  1.00 20.00     0.009 C 
HETATM    2  C2  UNL     1     -33.823   5.085   2.182  1.00 20.00     0.009 C 
HETATM    3  C3  UNL     1     -34.711   7.398   2.574  1.00 20.00     0.009 C 
HETATM    4  C4  UNL     1     -33.155   4.933   4.594  1.00 20.00     0.048 C 
HETATM    5  C5  UNL     1     -34.043   7.245   4.986  1.00 20.00     0.048 C 
HETATM    6  C6  UNL     1     -35.522   5.488   3.981  1.00 20.00     0.048 C 
HETATM    7  C7  UNL     1     -32.686   5.342   3.188  1.00 20.00    -0.011 C 
HETATM    8  C8  UNL     1     -33.580   7.671   3.583  1.00 20.00    -0.011 C 
HETATM    9  C9  UNL     1     -35.070   5.901   2.570  1.00 20.00    -0.011 C 
HETATM   10  C10 UNL     1     -34.393   5.752   4.985  1.00 20.00     0.104 C 
HETATM   11  F11 UNL     1     -34.800   5.385   6.225  1.00 20.00    -0.243 F 
ENDROOT
TORSDOF 0
