REMARK  2 active torsions:
REMARK  status: ('A' for Active; 'I' for Inactive)
REMARK    1  A    between atoms: C1_1  and  C4_4 
REMARK    2  A    between atoms: C1_1  and  O8_8 
ROOT
HETATM    1  C2  UNL     1     -34.686   7.092   5.386  1.00 20.00     0.020 A 
HETATM    2  C3  UNL     1     -33.244   6.864   5.722  1.00 20.00     0.020 A 
HETATM    3  C4  UNL     1     -33.956   5.907   4.789  1.00 20.00     0.044 A 
HETATM    4  C5  UNL     1     -34.300   4.544   5.335  1.00 20.00     0.026 C 
ENDROOT
BRANCH   3   5
HETATM    5  C1  UNL     1     -33.607   5.988   3.350  1.00 20.00     0.266 C 
HETATM    6  O7  UNL     1     -34.001   5.198   2.503  1.00 20.00    -0.264 OA
BRANCH   5   7
HETATM    7  O8  UNL     1     -32.795   7.062   3.138  1.00 20.00    -0.326 OA
HETATM    8  C6  UNL     1     -32.378   7.261   1.783  1.00 20.00     0.213 C 
ENDBRANCH   5   7
ENDBRANCH   3   5
TORSDOF 2
