REMARK  0 active torsions:
REMARK  status: ('A' for Active; 'I' for Inactive)
ROOT
HETATM    1  C1  UNL     1     -32.560   7.812   1.537  1.00 20.00     0.071 C 
HETATM    2  C2  UNL     1     -34.665   5.449   3.760  1.00 20.00    -0.000 C 
HETATM    3  C3  UNL     1     -34.356   6.394   4.656  1.00 20.00    -0.000 C 
HETATM    4  C4  UNL     1     -33.823   4.902   2.728  1.00 20.00    -0.002 C 
HETATM    5  C5  UNL     1     -33.107   7.095   4.805  1.00 20.00    -0.002 C 
HETATM    6  C6  UNL     1     -32.754   5.471   2.155  1.00 20.00    -0.004 C 
HETATM    7  C7  UNL     1     -32.161   7.290   3.876  1.00 20.00    -0.004 C 
HETATM    8  C8  UNL     1     -32.077   6.778   2.464  1.00 20.00     0.138 C 
HETATM    9  N9  UNL     1     -32.940   8.628   0.806  1.00 20.00    -0.196 NA
ENDROOT
TORSDOF 0
