REMARK  1 active torsions:
REMARK  status: ('A' for Active; 'I' for Inactive)
REMARK    1  A    between atoms: C3_3  and  C4_4 
ROOT
HETATM    1  C1  UNL     1     -32.975   4.889   2.309  1.00 20.00     0.197 C 
HETATM    2  C2  UNL     1     -32.240   6.194   2.174  1.00 20.00     0.197 C 
HETATM    3  C3  UNL     1     -33.896   6.433   3.688  1.00 20.00     0.369 C 
HETATM    4  O5  UNL     1     -34.210   5.264   2.919  1.00 20.00    -0.351 OA
HETATM    5  O6  UNL     1     -32.567   6.875   3.385  1.00 20.00    -0.351 OA
ENDROOT
BRANCH   3   6
HETATM    6  C4  UNL     1     -33.997   6.121   5.168  1.00 20.00     0.437 C 
HETATM    7  F7  UNL     1     -35.240   5.709   5.478  1.00 20.00    -0.166 F 
HETATM    8  F8  UNL     1     -33.130   5.149   5.505  1.00 20.00    -0.166 F 
HETATM    9  F9  UNL     1     -33.716   7.215   5.900  1.00 20.00    -0.166 F 
ENDBRANCH   3   6
TORSDOF 1
