REMARK  2 active torsions:
REMARK  status: ('A' for Active; 'I' for Inactive)
REMARK    1  A    between atoms: C1_1  and  C3_3 
REMARK    2  A    between atoms: C2_2  and  C3_3 
ROOT
HETATM    1  C3  UNL     1     -33.906   5.584   4.069  1.00 20.00     0.358 C 
HETATM    2  F8  UNL     1     -32.942   4.681   4.380  1.00 20.00    -0.194 F 
HETATM    3  F9  UNL     1     -34.937   4.891   3.525  1.00 20.00    -0.194 F 
ENDROOT
BRANCH   1   4
HETATM    4  C1  UNL     1     -34.379   6.258   5.334  1.00 20.00     0.430 C 
HETATM    5  F4  UNL     1     -34.836   5.317   6.198  1.00 20.00    -0.208 F 
HETATM    6  F5  UNL     1     -33.344   6.882   5.946  1.00 20.00    -0.208 F 
ENDBRANCH   1   4
BRANCH   1   7
HETATM    7  C2  UNL     1     -33.363   6.550   3.045  1.00 20.00     0.430 C 
HETATM    8  F6  UNL     1     -32.300   7.209   3.570  1.00 20.00    -0.208 F 
HETATM    9  F7  UNL     1     -32.909   5.875   1.962  1.00 20.00    -0.208 F 
ENDBRANCH   1   7
TORSDOF 2
