REMARK  2 active torsions:
REMARK  status: ('A' for Active; 'I' for Inactive)
REMARK    1  A    between atoms: C2_2  and  C3_3 
REMARK    2  A    between atoms: C3_3  and  O9_9 
ROOT
HETATM    1  C1  UNL     1     -34.003   6.537   5.310  1.00 20.00    -0.013 C 
HETATM    2  C2  UNL     1     -33.866   5.700   4.275  1.00 20.00     0.013 C 
HETATM    3  C4  UNL     1     -34.537   5.840   6.517  1.00 20.00     0.028 C 
HETATM    4  C5  UNL     1     -34.287   4.309   4.628  1.00 20.00     0.045 C 
HETATM    5  C6  UNL     1     -35.029   4.509   5.950  1.00 20.00     0.009 C 
ENDROOT
BRANCH   2   6
HETATM    6  C3  UNL     1     -33.366   6.033   2.979  1.00 20.00     0.288 C 
HETATM    7  O8  UNL     1     -33.256   5.230   2.055  1.00 20.00    -0.260 OA
BRANCH   6   8
HETATM    8  O9  UNL     1     -33.043   7.355   2.949  1.00 20.00    -0.323 OA
HETATM    9  C7  UNL     1     -32.524   7.844   1.707  1.00 20.00     0.213 C 
ENDBRANCH   6   8
ENDBRANCH   2   6
TORSDOF 2
