REMARK  0 active torsions:
REMARK  status: ('A' for Active; 'I' for Inactive)
ROOT
HETATM    1  C1  UNL     1     -34.012   5.082   2.680  1.00 20.00     0.135 C 
HETATM    2  C2  UNL     1     -32.803   5.963   2.494  1.00 20.00     0.088 C 
HETATM    3  C3  UNL     1     -33.932   6.533   4.568  1.00 20.00     0.025 C 
HETATM    4  C4  UNL     1     -34.764   5.381   3.966  1.00 20.00     0.014 C 
HETATM    5  C5  UNL     1     -33.093   7.147   3.426  1.00 20.00    -0.040 C 
HETATM    6  C6  UNL     1     -36.209   5.780   3.670  1.00 20.00     0.023 C 
HETATM    7  C7  UNL     1     -34.737   4.152   4.878  1.00 20.00     0.023 C 
HETATM    8  C8  UNL     1     -33.855   8.255   2.680  1.00 20.00     0.015 C 
HETATM    9  C9  UNL     1     -31.791   7.743   3.976  1.00 20.00     0.015 C 
HETATM   10  O10 UNL     1     -34.321   4.195   1.892  1.00 20.00    -0.297 OA
ENDROOT
TORSDOF 0
