REMARK  2 active torsions:
REMARK  status: ('A' for Active; 'I' for Inactive)
REMARK    1  A    between atoms: C7_7  and  O9_9 
REMARK    2  A    between atoms: C8_8  and  O9_9 
ROOT
HETATM    1  C1  UNL     1     -32.511   7.743   1.261  1.00 20.00     0.015 C 
HETATM    2  C2  UNL     1     -32.649   7.372   2.395  1.00 20.00    -0.086 C 
HETATM    3  C3  UNL     1     -32.359   7.977   4.768  1.00 20.00     0.053 C 
HETATM    4  C7  UNL     1     -32.817   6.915   3.779  1.00 20.00     0.196 C 
ENDROOT
BRANCH   4   5
HETATM    5  O9  UNL     1     -34.186   6.622   4.010  1.00 20.00    -0.364 OA
BRANCH   5   6
HETATM    6  C8  UNL     1     -34.370   5.250   4.364  1.00 20.00     0.051 C 
HETATM    7  C4  UNL     1     -33.577   4.966   5.639  1.00 20.00     0.045 C 
HETATM    8  C5  UNL     1     -35.863   5.033   4.599  1.00 20.00     0.045 C 
HETATM    9  C6  UNL     1     -33.875   4.380   3.209  1.00 20.00     0.045 C 
ENDBRANCH   5   6
ENDBRANCH   4   5
TORSDOF 2
