REMARK  0 active torsions:
REMARK  status: ('A' for Active; 'I' for Inactive)
ROOT
HETATM    1  C1  UNL     1     -34.220   5.007   6.233  1.00 20.00    -0.025 C 
HETATM    2  C2  UNL     1     -34.417   6.333   6.163  1.00 20.00    -0.025 C 
HETATM    3  C3  UNL     1     -33.234   4.483   2.560  1.00 20.00    -0.024 A 
HETATM    4  C4  UNL     1     -33.409   5.499   1.711  1.00 20.00    -0.025 A 
HETATM    5  C5  UNL     1     -35.544   5.396   4.387  1.00 20.00     0.018 C 
HETATM    6  C6  UNL     1     -34.422   4.452   4.839  1.00 20.00     0.016 C 
HETATM    7  C7  UNL     1     -34.748   6.662   4.724  1.00 20.00     0.014 C 
HETATM    8  C8  UNL     1     -33.218   4.925   3.986  1.00 20.00     0.021 A 
HETATM    9  C9  UNL     1     -33.572   6.821   2.401  1.00 20.00     0.009 A 
HETATM   10  C10 UNL     1     -33.441   6.477   3.901  1.00 20.00     0.009 A 
HETATM   11  C11 UNL     1     -32.504   7.812   1.952  1.00 20.00     0.014 C 
ENDROOT
TORSDOF 0
