REMARK  2 active torsions:
REMARK  status: ('A' for Active; 'I' for Inactive)
REMARK    1  A    between atoms: C2_2  and  C3_3 
REMARK    2  A    between atoms: C4_4  and  C5_5 
ROOT
HETATM    1  C3  UNL     1     -33.116   7.498   2.502  1.00 20.00    -0.001 C 
HETATM    2  C4  UNL     1     -32.193   7.417   1.532  1.00 20.00    -0.000 C 
ENDROOT
BRANCH   2   3
HETATM    3  C5  UNL     1     -32.314   8.110   0.269  1.00 20.00    -0.004 C 
HETATM    4  C6  UNL     1     -33.472   8.223  -0.398  1.00 20.00    -0.031 C 
HETATM    5  C7  UNL     1     -33.611   8.936  -1.702  1.00 20.00     0.036 C 
ENDBRANCH   2   3
BRANCH   1   6
HETATM    6  C2  UNL     1     -32.994   6.805   3.764  1.00 20.00    -0.010 C 
HETATM    7  C1  UNL     1     -33.910   6.880   4.736  1.00 20.00     0.011 C 
ENDBRANCH   1   6
TORSDOF 2
