REMARK  4 active torsions:
REMARK  status: ('A' for Active; 'I' for Inactive)
REMARK    1  A    between atoms: C1_1  and  C4_4 
REMARK    2  A    between atoms: C2_2  and  C6_6 
REMARK    3  A    between atoms: C6_6  and  C7_7 
REMARK    4  A    between atoms: C7_7  and  O8_8 
ROOT
HETATM    1  C1  UNL     1     -33.410   6.356   2.378  1.00 20.00    -0.072 C 
HETATM    2  C2  UNL     1     -32.918   7.174   1.649  1.00 20.00    -0.099 C 
ENDROOT
BRANCH   2   3
HETATM    3  C6  UNL     1     -32.314   8.176   0.758  1.00 20.00     0.120 C 
BRANCH   3   4
HETATM    4  C7  UNL     1     -33.173   9.429   0.666  1.00 20.00     0.176 C 
BRANCH   4   5
HETATM    5  O8  UNL     1     -33.301  10.016   1.956  1.00 20.00    -0.400 OA
HETATM    6  H18 UNL     1     -33.853  10.807   1.849  1.00 20.00     0.209 HD
ENDBRANCH   4   5
ENDBRANCH   3   4
ENDBRANCH   2   3
BRANCH   1   7
HETATM    7  C4  UNL     1     -33.994   5.381   3.242  1.00 20.00    -0.018 C 
HETATM    8  C3  UNL     1     -34.812   5.783   4.227  1.00 20.00     0.028 C 
HETATM    9  C5  UNL     1     -33.674   3.932   3.021  1.00 20.00     0.057 C 
ENDBRANCH   1   7
TORSDOF 4
