REMARK  1 active torsions:
REMARK  status: ('A' for Active; 'I' for Inactive)
REMARK    1  A    between atoms: C9_9  and  O10_10 
ROOT
HETATM    1  C1  UNL     1     -34.785   4.941   6.350  1.00 20.00     0.001 C 
HETATM    2  C2  UNL     1     -33.828   6.144   6.322  1.00 20.00     0.005 C 
HETATM    3  C3  UNL     1     -34.874   4.418   4.907  1.00 20.00     0.005 C 
HETATM    4  C4  UNL     1     -32.478   7.268   4.410  1.00 20.00     0.007 C 
HETATM    5  C5  UNL     1     -32.461   7.387   2.882  1.00 20.00     0.032 C 
HETATM    6  C6  UNL     1     -33.780   5.205   2.689  1.00 20.00     0.036 C 
HETATM    7  C7  UNL     1     -33.704   6.478   4.843  1.00 20.00    -0.010 C 
HETATM    8  C8  UNL     1     -33.706   5.092   4.202  1.00 20.00    -0.008 C 
HETATM    9  C9  UNL     1     -32.589   6.027   2.176  1.00 20.00     0.118 C 
ENDROOT
BRANCH   9  10
HETATM   10  O10 UNL     1     -32.746   6.228   0.776  1.00 20.00    -0.396 OA
HETATM   11  H26 UNL     1     -31.954   6.701   0.473  1.00 20.00     0.210 HD
ENDBRANCH   9  10
TORSDOF 1
