REMARK  1 active torsions:
REMARK  status: ('A' for Active; 'I' for Inactive)
REMARK    1  A    between atoms: C7_7  and  O8_8 
ROOT
HETATM    1  C1  UNL     1     -34.121   4.343   3.905  1.00 20.00    -0.025 C 
HETATM    2  C2  UNL     1     -34.767   4.662   5.036  1.00 20.00    -0.023 C 
HETATM    3  C3  UNL     1     -35.411   6.208   3.441  1.00 20.00     0.019 C 
HETATM    4  C4  UNL     1     -33.072   6.568   3.750  1.00 20.00     0.041 C 
HETATM    5  C5  UNL     1     -34.057   5.594   3.062  1.00 20.00     0.011 C 
HETATM    6  C6  UNL     1     -35.134   6.127   4.945  1.00 20.00     0.037 C 
HETATM    7  C7  UNL     1     -33.846   6.978   5.032  1.00 20.00     0.126 C 
ENDROOT
BRANCH   7   8
HETATM    8  O8  UNL     1     -33.099   6.717   6.205  1.00 20.00    -0.395 OA
HETATM    9  H18 UNL     1     -32.278   7.235   6.143  1.00 20.00     0.210 HD
ENDBRANCH   7   8
TORSDOF 1
