REMARK  2 active torsions:
REMARK  status: ('A' for Active; 'I' for Inactive)
REMARK    1  A    between atoms: C2_2  and  C3_3 
REMARK    2  A    between atoms: C3_3  and  C4_4 
ROOT
HETATM    1  C1  UNL     1     -32.983   6.362   2.467  1.00 20.00     0.059 C 
HETATM    2  C2  UNL     1     -33.582   5.026   2.584  1.00 20.00     0.132 C 
HETATM    3  N5  UNL     1     -32.509   7.417   2.371  1.00 20.00    -0.197 NA
ENDROOT
BRANCH   2   4
HETATM    4  C3  UNL     1     -33.788   4.644   4.049  1.00 20.00     0.131 C 
BRANCH   4   5
HETATM    5  C4  UNL     1     -34.732   5.595   4.753  1.00 20.00     0.388 C 
HETATM    6  F6  UNL     1     -34.243   6.853   4.769  1.00 20.00    -0.171 F 
HETATM    7  F7  UNL     1     -35.940   5.623   4.151  1.00 20.00    -0.171 F 
HETATM    8  F8  UNL     1     -34.922   5.211   6.035  1.00 20.00    -0.171 F 
ENDBRANCH   4   5
ENDBRANCH   2   4
TORSDOF 2
