REMARK  3 active torsions:
REMARK  status: ('A' for Active; 'I' for Inactive)
REMARK    1  A    between atoms: C4_4  and  C6_6 
REMARK    2  A    between atoms: C5_5  and  C6_6 
REMARK    3  A    between atoms: C6_6  and  N7_7 
ROOT
HETATM    1  C1  UNL     1     -33.046   7.446   2.486  1.00 20.00     0.158 C 
HETATM    2  N7  UNL     1     -32.959   7.045   3.584  1.00 20.00    -0.270 NA
HETATM    3  S8  UNL     1     -33.130   8.001   0.995  1.00 20.00    -0.055 SA
ENDROOT
BRANCH   2   4
HETATM    4  C6  UNL     1     -34.180   6.414   4.105  1.00 20.00     0.109 C 
BRANCH   4   5
HETATM    5  C4  UNL     1     -33.918   5.955   5.544  1.00 20.00     0.023 C 
HETATM    6  C2  UNL     1     -35.139   5.303   6.181  1.00 20.00     0.007 C 
ENDBRANCH   4   5
BRANCH   4   7
HETATM    7  C5  UNL     1     -34.536   5.223   3.207  1.00 20.00     0.023 C 
HETATM    8  C3  UNL     1     -33.458   4.179   3.179  1.00 20.00     0.007 C 
ENDBRANCH   4   7
ENDBRANCH   2   4
TORSDOF 3
