REMARK  4 active torsions:
REMARK  status: ('A' for Active; 'I' for Inactive)
REMARK    1  A    between atoms: C1_1  and  C6_6 
REMARK    2  A    between atoms: C6_6  and  C8_8 
REMARK    3  A    between atoms: C7_7  and  C8_8 
REMARK    4  A    between atoms: C7_7  and  C9_9 
ROOT
HETATM    1  C2  UNL     1     -32.680   5.202   2.670  1.00 20.00     0.010 C 
HETATM    2  C8  UNL     1     -33.235   6.588   3.027  1.00 20.00    -0.010 C 
ENDROOT
BRANCH   2   3
HETATM    3  C6  UNL     1     -34.383   6.397   4.041  1.00 20.00     0.100 C 
BRANCH   3   4
HETATM    4  C1  UNL     1     -33.901   6.099   5.453  1.00 20.00     0.219 C 
HETATM    5  O10 UNL     1     -33.173   6.859   6.083  1.00 20.00    -0.280 OA
HETATM    6 CL11 UNL     1     -34.467   4.550   6.013  1.00 20.00    -0.044 Cl
ENDBRANCH   3   4
ENDBRANCH   2   3
BRANCH   2   7
HETATM    7  C7  UNL     1     -33.740   7.331   1.763  1.00 20.00     0.013 C 
BRANCH   7   8
HETATM    8  C9  UNL     1     -32.684   8.108   0.923  1.00 20.00    -0.051 C 
HETATM    9  C3  UNL     1     -33.427   8.840  -0.214  1.00 20.00     0.014 C 
HETATM   10  C4  UNL     1     -31.635   7.181   0.293  1.00 20.00     0.014 C 
HETATM   11  C5  UNL     1     -31.969   9.165   1.783  1.00 20.00     0.014 C 
ENDBRANCH   7   8
ENDBRANCH   2   7
TORSDOF 4
