REMARK  2 active torsions:
REMARK  status: ('A' for Active; 'I' for Inactive)
REMARK    1  A    between atoms: C1_1  and  C2_2 
REMARK    2  A    between atoms: C1_1  and  C3_3 
ROOT
HETATM    1  C3  UNL     1     -34.091   6.114   3.618  1.00 20.00     0.256 C 
HETATM    2  F4  UNL     1     -34.930   6.870   2.854  1.00 20.00    -0.207 F 
HETATM    3 CL5  UNL     1     -33.819   6.979   5.152  1.00 20.00    -0.066 Cl
HETATM    4 CL6  UNL     1     -34.894   4.557   3.940  1.00 20.00    -0.066 Cl
ENDROOT
BRANCH   1   5
HETATM    5  C1  UNL     1     -32.789   5.930   2.834  1.00 20.00     0.089 C 
BRANCH   5   6
HETATM    6  C2  UNL     1     -32.053   7.215   2.479  1.00 20.00     0.090 C 
HETATM    7 BR7  UNL     1     -33.176   8.308   1.316  1.00 20.00    -0.096 Br
ENDBRANCH   5   6
ENDBRANCH   1   5
TORSDOF 2
