REMARK  0 active torsions:
REMARK  status: ('A' for Active; 'I' for Inactive)
ROOT
HETATM    1  C1  UNL     1     -32.536   8.205   3.599  1.00 20.00     0.031 A 
HETATM    2  C2  UNL     1     -33.205   6.588   1.911  1.00 20.00     0.043 A 
HETATM    3  C3  UNL     1     -33.804   6.280   4.221  1.00 20.00     0.033 A 
HETATM    4  C4  UNL     1     -33.165   7.455   4.593  1.00 20.00    -0.045 A 
HETATM    5  C5  UNL     1     -33.830   5.844   2.901  1.00 20.00     0.017 A 
HETATM    6  C6  UNL     1     -32.556   7.775   2.265  1.00 20.00     0.035 A 
HETATM    7  C7  UNL     1     -34.511   5.374   5.132  1.00 20.00     0.171 A 
HETATM    8  C8  UNL     1     -35.109   4.171   4.441  1.00 20.00     0.163 A 
HETATM    9  C9  UNL     1     -33.119   7.946   5.999  1.00 20.00     0.049 C 
HETATM   10  O10 UNL     1     -34.609   5.571   6.334  1.00 20.00    -0.291 OA
HETATM   11  S11 UNL     1     -34.701   4.324   2.676  1.00 20.00    -0.121 SA
HETATM   12 CL12 UNL     1     -31.775   8.716   1.052  1.00 20.00    -0.084 Cl
ENDROOT
TORSDOF 0
