REMARK  1 active torsions:
REMARK  status: ('A' for Active; 'I' for Inactive)
REMARK    1  A    between atoms: C1_1  and  C5_5 
ROOT
HETATM    1  C2  UNL     1     -34.523   6.774   6.641  1.00 20.00     0.006 C 
HETATM    2  C3  UNL     1     -34.874   5.279   6.666  1.00 20.00     0.006 C 
HETATM    3  C4  UNL     1     -32.639   5.501   5.958  1.00 20.00     0.011 C 
HETATM    4  C5  UNL     1     -33.868   6.633   4.225  1.00 20.00     0.067 C 
HETATM    5  C6  UNL     1     -33.334   6.832   5.664  1.00 20.00    -0.002 C 
HETATM    6  C7  UNL     1     -33.890   4.673   5.645  1.00 20.00    -0.006 C 
HETATM    7  C8  UNL     1     -34.217   5.111   4.179  1.00 20.00    -0.033 C 
HETATM    8  C10 UNL     1     -33.365   4.292   3.186  1.00 20.00     0.016 C 
HETATM    9  C11 UNL     1     -35.689   4.897   3.790  1.00 20.00     0.016 C 
ENDROOT
BRANCH   4  10
HETATM   10  C1  UNL     1     -32.854   7.083   3.216  1.00 20.00     0.128 C 
HETATM   11  C9  UNL     1     -33.387   7.621   1.915  1.00 20.00     0.091 C 
HETATM   12  O12 UNL     1     -31.647   7.018   3.441  1.00 20.00    -0.298 OA
ENDBRANCH   4  10
TORSDOF 1
