REMARK  1 active torsions:
REMARK  status: ('A' for Active; 'I' for Inactive)
REMARK    1  A    between atoms: C2_2  and  C7_7 
ROOT
HETATM    1  C1  UNL     1     -34.072   5.270   4.179  1.00 20.00     0.127 C 
HETATM    2  C3  UNL     1     -33.832   6.613   4.832  1.00 20.00     0.079 C 
HETATM    3  C4  UNL     1     -33.190   4.924   3.000  1.00 20.00     0.079 C 
HETATM    4  C5  UNL     1     -33.794   7.719   3.786  1.00 20.00     0.019 C 
HETATM    5  C6  UNL     1     -33.167   6.066   1.993  1.00 20.00     0.019 C 
HETATM    6  C7  UNL     1     -32.811   7.397   2.659  1.00 20.00     0.048 C 
HETATM    7  O8  UNL     1     -34.870   4.459   4.648  1.00 20.00    -0.298 OA
ENDROOT
BRANCH   6   8
HETATM    8  C2  UNL     1     -32.845   8.498   1.645  1.00 20.00     0.235 C 
HETATM    9  O9  UNL     1     -33.131   8.323   0.465  1.00 20.00    -0.306 OA
ENDBRANCH   6   8
TORSDOF 1
