REMARK  1 active torsions:
REMARK  status: ('A' for Active; 'I' for Inactive)
REMARK    1  A    between atoms: C1_1  and  C5_5 
ROOT
HETATM    1  C2  UNL     1     -33.955   7.206   5.553  1.00 20.00     0.040 C 
HETATM    2  C3  UNL     1     -33.876   5.910   6.333  1.00 20.00     0.168 C 
HETATM    3  C4  UNL     1     -34.985   5.461   4.329  1.00 20.00     0.179 C 
HETATM    4  C5  UNL     1     -34.198   6.739   4.142  1.00 20.00     0.073 C 
HETATM    5  O7  UNL     1     -34.685   4.954   5.639  1.00 20.00    -0.390 OA
ENDROOT
BRANCH   4   6
HETATM    6  C1  UNL     1     -32.867   6.430   3.478  1.00 20.00     0.237 C 
HETATM    7  O6  UNL     1     -32.498   6.949   2.429  1.00 20.00    -0.306 OA
ENDBRANCH   4   6
TORSDOF 1
