REMARK  1 active torsions:
REMARK  status: ('A' for Active; 'I' for Inactive)
REMARK    1  A    between atoms: C4_4  and  C7_7 
ROOT
HETATM    1  C1  UNL     1     -32.946   8.150   0.376  1.00 20.00     0.063 C 
HETATM    2  C7  UNL     1     -32.053   7.668   1.442  1.00 20.00     0.165 C 
HETATM    3  N8  UNL     1     -33.650   8.530  -0.464  1.00 20.00    -0.197 NA
ENDROOT
BRANCH   2   4
HETATM    4  C4  UNL     1     -32.838   7.035   2.539  1.00 20.00    -0.006 A 
HETATM    5  C3  UNL     1     -33.042   7.731   3.720  1.00 20.00     0.128 A 
HETATM    6  N9  UNL     1     -33.737   7.247   4.773  1.00 20.00    -0.248 NA
HETATM    7  C6  UNL     1     -34.252   6.005   4.633  1.00 20.00     0.127 A 
HETATM    8  C2  UNL     1     -34.105   5.228   3.495  1.00 20.00     0.068 A 
HETATM    9 CL11 UNL     1     -35.126   5.430   5.993  1.00 20.00    -0.062 Cl
HETATM   10  C5  UNL     1     -33.383   5.761   2.432  1.00 20.00     0.045 A 
HETATM   11 CL10 UNL     1     -33.185   4.815   1.003  1.00 20.00    -0.084 Cl
ENDBRANCH   2   4
TORSDOF 1
