REMARK  5 active torsions:
REMARK  status: ('A' for Active; 'I' for Inactive)
REMARK    1  A    between atoms: C2_2  and  C3_3 
REMARK    2  A    between atoms: C3_3  and  C4_4 
REMARK    3  A    between atoms: C4_4  and  C5_5 
REMARK    4  A    between atoms: C5_5  and  C6_6 
REMARK    5  A    between atoms: C6_6  and  C7_7 
ROOT
HETATM    1  C1  UNL     1     -35.049   5.189   4.999  1.00 20.00     0.059 C 
HETATM    2  C2  UNL     1     -35.078   5.147   3.531  1.00 20.00     0.124 C 
HETATM    3  N8  UNL     1     -35.028   5.221   6.159  1.00 20.00    -0.197 NA
ENDROOT
BRANCH   2   4
HETATM    4  C3  UNL     1     -33.769   5.638   2.911  1.00 20.00     0.014 C 
BRANCH   4   5
HETATM    5  C4  UNL     1     -33.400   7.060   3.348  1.00 20.00     0.001 C 
BRANCH   5   6
HETATM    6  C5  UNL     1     -32.070   7.502   2.731  1.00 20.00     0.001 C 
BRANCH   6   7
HETATM    7  C6  UNL     1     -32.146   7.515   1.201  1.00 20.00     0.015 C 
BRANCH   7   8
HETATM    8  C7  UNL     1     -33.217   8.456   0.659  1.00 20.00     0.114 C 
HETATM    9 CL9  UNL     1     -32.951  10.138   1.172  1.00 20.00    -0.130 Cl
ENDBRANCH   7   8
ENDBRANCH   6   7
ENDBRANCH   5   6
ENDBRANCH   4   5
ENDBRANCH   2   4
TORSDOF 5
