REMARK  2 active torsions:
REMARK  status: ('A' for Active; 'I' for Inactive)
REMARK    1  A    between atoms: C5_5  and  C6_6 
REMARK    2  A    between atoms: C5_5  and  N7_7 
ROOT
HETATM    1  C1  UNL     1     -32.875   7.427   1.952  1.00 20.00     0.157 C 
HETATM    2  N7  UNL     1     -32.664   6.979   3.016  1.00 20.00    -0.275 NA
HETATM    3  S8  UNL     1     -33.132   8.028   0.500  1.00 20.00    -0.055 SA
ENDROOT
BRANCH   2   4
HETATM    4  C5  UNL     1     -33.786   7.070   3.956  1.00 20.00     0.158 C 
BRANCH   4   5
HETATM    5  C6  UNL     1     -34.257   5.669   4.397  1.00 20.00    -0.033 C 
HETATM    6  C2  UNL     1     -34.142   5.510   5.922  1.00 20.00     0.016 C 
HETATM    7  C3  UNL     1     -33.359   4.617   3.721  1.00 20.00     0.016 C 
HETATM    8  C4  UNL     1     -35.714   5.424   3.966  1.00 20.00     0.016 C 
ENDBRANCH   4   5
ENDBRANCH   2   4
TORSDOF 2
