REMARK  1 active torsions:
REMARK  status: ('A' for Active; 'I' for Inactive)
REMARK    1  A    between atoms: C1_1  and  C6_6 
ROOT
HETATM    1  C2  UNL     1     -33.707   6.226   6.299  1.00 20.00     0.005 C 
HETATM    2  C3  UNL     1     -33.985   7.290   5.229  1.00 20.00     0.006 C 
HETATM    3  C4  UNL     1     -33.526   4.455   4.539  1.00 20.00     0.016 C 
HETATM    4  C5  UNL     1     -35.589   5.562   4.999  1.00 20.00     0.010 C 
HETATM    5  C6  UNL     1     -33.810   5.489   3.436  1.00 20.00     0.051 C 
HETATM    6  C7  UNL     1     -34.375   4.969   5.717  1.00 20.00    -0.013 C 
HETATM    7  C8  UNL     1     -34.737   6.501   4.140  1.00 20.00    -0.003 C 
ENDROOT
BRANCH   5   8
HETATM    8  C1  UNL     1     -32.571   6.103   2.866  1.00 20.00     0.236 C 
HETATM    9  O9  UNL     1     -32.523   7.248   2.429  1.00 20.00    -0.306 OA
ENDBRANCH   5   8
TORSDOF 1
