REMARK  1 active torsions:
REMARK  status: ('A' for Active; 'I' for Inactive)
REMARK    1  A    between atoms: C2_2  and  C4_4 
ROOT
HETATM    1  C4  UNL     1     -33.306   6.816   3.199  1.00 20.00     0.407 C 
HETATM    2  F5  UNL     1     -34.357   6.563   4.021  1.00 20.00    -0.167 F 
HETATM    3  F6  UNL     1     -32.858   5.614   2.755  1.00 20.00    -0.167 F 
HETATM    4  F7  UNL     1     -32.321   7.339   3.973  1.00 20.00    -0.167 F 
ENDROOT
BRANCH   1   5
HETATM    5  C2  UNL     1     -33.702   7.699   2.068  1.00 20.00     0.084 C 
HETATM    6  C1  UNL     1     -32.869   8.112   1.103  1.00 20.00    -0.026 C 
HETATM    7  C3  UNL     1     -33.282   8.998  -0.026  1.00 20.00     0.036 C 
ENDBRANCH   1   5
TORSDOF 1
