REMARK  0 active torsions:
REMARK  status: ('A' for Active; 'I' for Inactive)
ROOT
HETATM    1  C1  UNL     1     -32.553   7.060   3.442  1.00 20.00     0.131 C 
HETATM    2  C2  UNL     1     -33.522   6.369   4.372  1.00 20.00     0.087 C 
HETATM    3  C3  UNL     1     -34.331   6.299   2.097  1.00 20.00     0.021 C 
HETATM    4  C4  UNL     1     -32.908   6.853   1.985  1.00 20.00     0.052 C 
HETATM    5  C5  UNL     1     -34.356   5.500   3.414  1.00 20.00    -0.041 C 
HETATM    6  C6  UNL     1     -32.835   8.133   1.175  1.00 20.00     0.018 C 
HETATM    7  C7  UNL     1     -33.716   4.112   3.237  1.00 20.00     0.015 C 
HETATM    8  C8  UNL     1     -35.789   5.328   3.924  1.00 20.00     0.015 C 
HETATM    9  O9  UNL     1     -31.593   7.713   3.832  1.00 20.00    -0.298 OA
ENDROOT
TORSDOF 0
