REMARK  0 active torsions:
REMARK  status: ('A' for Active; 'I' for Inactive)
ROOT
HETATM    1  C1  UNL     1     -34.836   5.283   5.721  1.00 20.00     0.072 C 
HETATM    2  C2  UNL     1     -34.552   6.695   6.208  1.00 20.00     0.173 C 
HETATM    3  C3  UNL     1     -33.279   6.288   4.301  1.00 20.00     0.255 C 
HETATM    4  C4  UNL     1     -34.504   5.375   4.242  1.00 20.00     0.154 C 
HETATM    5  O5  UNL     1     -33.539   7.241   5.346  1.00 20.00    -0.367 OA
HETATM    6 CL6  UNL     1     -32.862   7.109   2.790  1.00 20.00    -0.092 Cl
HETATM    7 CL7  UNL     1     -34.135   3.789   3.540  1.00 20.00    -0.098 Cl
HETATM    8 CL8  UNL     1     -35.889   6.107   3.367  1.00 20.00    -0.098 Cl
ENDROOT
TORSDOF 0
