REMARK  5 active torsions:
REMARK  status: ('A' for Active; 'I' for Inactive)
REMARK    1  A    between atoms: C1_1  and  C6_6 
REMARK    2  A    between atoms: C2_2  and  C7_7 
REMARK    3  A    between atoms: C2_2  and  C8_8 
REMARK    4  A    between atoms: C7_7  and  C9_9 
REMARK    5  A    between atoms: C8_8  and  C10_10 
ROOT
HETATM    1  C1  UNL     1     -33.757   7.471   4.521  1.00 20.00    -0.024 C 
HETATM    2  C2  UNL     1     -33.368   7.024   3.310  1.00 20.00    -0.084 C 
ENDROOT
BRANCH   2   3
HETATM    3  C7  UNL     1     -34.045   7.547   2.059  1.00 20.00     0.033 C 
BRANCH   3   4
HETATM    4  C9  UNL     1     -33.073   8.296   1.142  1.00 20.00    -0.000 C 
HETATM    5  C4  UNL     1     -33.769   8.790  -0.117  1.00 20.00     0.005 C 
ENDBRANCH   3   4
ENDBRANCH   2   3
BRANCH   2   6
HETATM    6  C8  UNL     1     -32.267   6.007   3.101  1.00 20.00     0.033 C 
BRANCH   6   7
HETATM    7  C10 UNL     1     -32.784   4.731   2.433  1.00 20.00    -0.000 C 
HETATM    8  C5  UNL     1     -33.841   4.048   3.286  1.00 20.00     0.005 C 
ENDBRANCH   6   7
ENDBRANCH   2   6
BRANCH   1   9
HETATM    9  C6  UNL     1     -33.235   7.043   5.863  1.00 20.00     0.023 C 
HETATM   10  C3  UNL     1     -34.028   5.870   6.415  1.00 20.00     0.009 C 
ENDBRANCH   1   9
TORSDOF 5
