REMARK  0 active torsions:
REMARK  status: ('A' for Active; 'I' for Inactive)
ROOT
HETATM    1  C1  UNL     1     -32.975   5.975   4.259  1.00 20.00     0.048 C 
HETATM    2  C2  UNL     1     -34.961   6.606   3.146  1.00 20.00     0.177 C 
HETATM    3  C3  UNL     1     -33.547   6.126   2.849  1.00 20.00    -0.023 C 
HETATM    4  C4  UNL     1     -34.197   5.703   5.151  1.00 20.00     0.054 C 
HETATM    5  C5  UNL     1     -33.577   4.776   2.115  1.00 20.00     0.017 C 
HETATM    6  C6  UNL     1     -32.765   7.136   2.010  1.00 20.00     0.017 C 
HETATM    7  C7  UNL     1     -34.263   6.686   6.322  1.00 20.00     0.045 C 
HETATM    8  C8  UNL     1     -34.230   4.270   5.679  1.00 20.00     0.045 C 
HETATM    9  O9  UNL     1     -35.365   5.908   4.331  1.00 20.00    -0.380 OA
ENDROOT
TORSDOF 0
