REMARK  2 active torsions:
REMARK  status: ('A' for Active; 'I' for Inactive)
REMARK    1  A    between atoms: C1_1  and  C3_3 
REMARK    2  A    between atoms: C2_2  and  C3_3 
ROOT
HETATM    1  C3  UNL     1     -34.229   6.444   3.943  1.00 20.00     0.139 C 
HETATM    2 CL6  UNL     1     -33.529   7.241   5.385  1.00 20.00    -0.120 Cl
ENDROOT
BRANCH   1   3
HETATM    3  C1  UNL     1     -33.111   5.923   3.056  1.00 20.00     0.244 C 
HETATM    4  F4  UNL     1     -32.301   6.949   2.682  1.00 20.00    -0.254 F 
ENDBRANCH   1   3
BRANCH   1   5
HETATM    5  C2  UNL     1     -35.167   5.332   4.387  1.00 20.00     0.244 C 
HETATM    6  F5  UNL     1     -34.459   4.404   5.086  1.00 20.00    -0.254 F 
ENDBRANCH   1   5
TORSDOF 2
