REMARK  3 active torsions:
REMARK  status: ('A' for Active; 'I' for Inactive)
REMARK    1  A    between atoms: C4_4  and  C5_5 
REMARK    2  A    between atoms: C4_4  and  C6_6 
REMARK    3  A    between atoms: C5_5  and  N7_7 
ROOT
HETATM    1  C1  UNL     1     -32.841   8.081   1.816  1.00 20.00     0.157 C 
HETATM    2  N7  UNL     1     -32.299   7.183   2.346  1.00 20.00    -0.276 NA
HETATM    3  S8  UNL     1     -33.566   9.290   1.074  1.00 20.00    -0.055 SA
ENDROOT
BRANCH   2   4
HETATM    4  C5  UNL     1     -32.498   7.110   3.794  1.00 20.00     0.151 C 
BRANCH   4   5
HETATM    5  C4  UNL     1     -33.681   6.198   4.111  1.00 20.00     0.026 C 
BRANCH   5   6
HETATM    6  C6  UNL     1     -33.962   5.996   5.613  1.00 20.00    -0.021 C 
HETATM    7  C2  UNL     1     -34.265   7.347   6.267  1.00 20.00     0.009 C 
HETATM    8  C3  UNL     1     -35.120   5.030   5.866  1.00 20.00     0.009 C 
ENDBRANCH   5   6
ENDBRANCH   4   5
ENDBRANCH   2   4
TORSDOF 3
