REMARK  1 active torsions:
REMARK  status: ('A' for Active; 'I' for Inactive)
REMARK    1  A    between atoms: C1_1  and  C6_6 
ROOT
HETATM    1  C2  UNL     1     -33.581   4.071   3.216  1.00 20.00     0.002 C 
HETATM    2  C3  UNL     1     -32.714   5.176   2.621  1.00 20.00     0.012 C 
HETATM    3  C4  UNL     1     -33.895   4.330   4.689  1.00 20.00     0.009 C 
HETATM    4  C5  UNL     1     -33.646   6.818   4.305  1.00 20.00     0.021 C 
HETATM    5  C6  UNL     1     -33.336   6.557   2.828  1.00 20.00     0.055 C 
HETATM    6  C7  UNL     1     -34.521   5.719   4.950  1.00 20.00    -0.047 C 
HETATM    7  C9  UNL     1     -34.589   5.960   6.470  1.00 20.00     0.015 C 
HETATM    8  C10 UNL     1     -35.959   5.777   4.398  1.00 20.00     0.015 C 
ENDROOT
BRANCH   5   9
HETATM    9  C1  UNL     1     -32.388   7.601   2.319  1.00 20.00     0.127 C 
HETATM   10  C8  UNL     1     -32.503   7.968   0.864  1.00 20.00     0.091 C 
HETATM   11  O11 UNL     1     -31.557   8.132   3.054  1.00 20.00    -0.298 OA
ENDBRANCH   5   9
TORSDOF 1
