REMARK  2 active torsions:
REMARK  status: ('A' for Active; 'I' for Inactive)
REMARK    1  A    between atoms: C3_3  and  O6_6 
REMARK    2  A    between atoms: C4_4  and  O6_6 
ROOT
HETATM    1  C1  UNL     1     -32.851   7.826   1.701  1.00 20.00     0.014 C 
HETATM    2  C2  UNL     1     -33.159   6.713   2.030  1.00 20.00    -0.091 C 
HETATM    3  C4  UNL     1     -33.533   5.356   2.430  1.00 20.00     0.272 C 
ENDROOT
BRANCH   3   4
HETATM    4  O6  UNL     1     -34.519   5.392   3.454  1.00 20.00    -0.297 OA
BRANCH   4   5
HETATM    5  C3  UNL     1     -34.167   6.030   4.621  1.00 20.00     0.358 C 
HETATM    6  O5  UNL     1     -33.372   6.964   4.655  1.00 20.00    -0.245 OA
HETATM    7 CL7  UNL     1     -34.971   5.369   6.021  1.00 20.00    -0.012 Cl
ENDBRANCH   4   5
ENDBRANCH   3   4
TORSDOF 2
