REMARK  1 active torsions:
REMARK  status: ('A' for Active; 'I' for Inactive)
REMARK    1  A    between atoms: C1_1  and  C3_3 
ROOT
HETATM    1  C2  UNL     1     -34.699   7.312   2.745  1.00 20.00     0.110 C 
HETATM    2  C3  UNL     1     -33.672   6.983   3.866  1.00 20.00     0.110 C 
HETATM    3  C4  UNL     1     -33.660   6.882   1.692  1.00 20.00     0.310 C 
HETATM    4  C5  UNL     1     -32.924   6.101   2.810  1.00 20.00     0.323 C 
HETATM    5  C6  UNL     1     -32.866   8.201   4.323  1.00 20.00     0.031 C 
HETATM    6  F8  UNL     1     -32.952   7.889   1.131  1.00 20.00    -0.200 F 
HETATM    7  F9  UNL     1     -34.136   6.128   0.676  1.00 20.00    -0.200 F 
HETATM    8  F10 UNL     1     -33.208   4.778   2.855  1.00 20.00    -0.198 F 
HETATM    9  F11 UNL     1     -31.575   6.204   2.800  1.00 20.00    -0.198 F 
ENDROOT
BRANCH   2  10
HETATM   10  C1  UNL     1     -34.244   6.210   5.087  1.00 20.00     0.233 C 
HETATM   11  O7  UNL     1     -34.201   6.675   6.222  1.00 20.00    -0.279 OA
HETATM   12 CL12 UNL     1     -34.917   4.674   4.632  1.00 20.00    -0.043 Cl
ENDBRANCH   2  10
TORSDOF 1
