REMARK  1 active torsions:
REMARK  status: ('A' for Active; 'I' for Inactive)
REMARK    1  A    between atoms: C1_1  and  C6_6 
ROOT
HETATM    1  C2  UNL     1     -33.339   7.134   5.037  1.00 20.00     0.022 C 
HETATM    2  C3  UNL     1     -33.999   5.083   3.680  1.00 20.00     0.022 C 
HETATM    3  C4  UNL     1     -34.214   6.759   6.226  1.00 20.00     0.074 C 
HETATM    4  C5  UNL     1     -34.928   4.538   4.758  1.00 20.00     0.074 C 
HETATM    5  C6  UNL     1     -33.882   6.608   3.707  1.00 20.00     0.048 C 
HETATM    6  S8  UNL     1     -34.347   4.959   6.426  1.00 20.00    -0.169 SA
ENDROOT
BRANCH   5   7
HETATM    7  C1  UNL     1     -32.978   7.043   2.594  1.00 20.00     0.235 C 
HETATM    8  O7  UNL     1     -31.954   7.695   2.770  1.00 20.00    -0.306 OA
ENDBRANCH   5   7
TORSDOF 1
