REMARK  2 active torsions:
REMARK  status: ('A' for Active; 'I' for Inactive)
REMARK    1  A    between atoms: C1_1  and  C2_2 
REMARK    2  A    between atoms: C1_1  and  C3_3 
ROOT
HETATM    1  C3  UNL     1     -34.727   5.569   4.353  1.00 20.00     0.390 C 
HETATM    2  F5  UNL     1     -35.236   5.622   5.604  1.00 20.00    -0.171 F 
HETATM    3  F6  UNL     1     -35.740   5.795   3.489  1.00 20.00    -0.171 F 
HETATM    4  F7  UNL     1     -34.275   4.315   4.148  1.00 20.00    -0.171 F 
ENDROOT
BRANCH   1   5
HETATM    5  C1  UNL     1     -33.624   6.592   4.187  1.00 20.00     0.148 C 
BRANCH   5   6
HETATM    6  C2  UNL     1     -33.039   6.581   2.786  1.00 20.00     0.230 C 
HETATM    7  F4  UNL     1     -32.525   5.350   2.523  1.00 20.00    -0.255 F 
ENDBRANCH   5   6
ENDBRANCH   1   5
TORSDOF 2
