REMARK  3 active torsions:
REMARK  status: ('A' for Active; 'I' for Inactive)
REMARK    1  A    between atoms: C3_3  and  C4_4 
REMARK    2  A    between atoms: C4_4  and  O10_10 
REMARK    3  A    between atoms: C7_7  and  O10_10 
ROOT
HETATM    1  C1  UNL     1     -34.651   5.696   3.835  1.00 20.00     0.105 C 
HETATM    2  C2  UNL     1     -33.414   4.475   2.185  1.00 20.00     0.042 C 
HETATM    3  C3  UNL     1     -33.633   5.623   2.842  1.00 20.00     0.110 C 
HETATM    4  N8  UNL     1     -35.481   5.757   4.644  1.00 20.00    -0.191 NA
ENDROOT
BRANCH   3   5
HETATM    5  C4  UNL     1     -32.783   6.795   2.492  1.00 20.00     0.303 C 
HETATM    6  O9  UNL     1     -32.054   7.382   3.280  1.00 20.00    -0.258 OA
BRANCH   5   7
HETATM    7  O10 UNL     1     -32.946   7.099   1.175  1.00 20.00    -0.312 OA
BRANCH   7   8
HETATM    8  C7  UNL     1     -32.779   8.480   0.833  1.00 20.00     0.124 C 
HETATM    9  C5  UNL     1     -32.960   8.648  -0.668  1.00 20.00     0.040 C 
HETATM   10  C6  UNL     1     -33.777   9.315   1.621  1.00 20.00     0.040 C 
ENDBRANCH   7   8
ENDBRANCH   5   7
ENDBRANCH   3   5
TORSDOF 3
