REMARK  2 active torsions:
REMARK  status: ('A' for Active; 'I' for Inactive)
REMARK    1  A    between atoms: C1_1  and  C2_2 
REMARK    2  A    between atoms: C1_1  and  C3_3 
ROOT
HETATM    1  C1  UNL     1     -33.576   6.313   4.230  1.00 20.00     0.341 C 
HETATM    2  F4  UNL     1     -33.916   7.622   4.399  1.00 20.00    -0.234 F 
ENDROOT
BRANCH   1   3
HETATM    3  C2  UNL     1     -33.437   6.053   2.746  1.00 20.00     0.395 C 
HETATM    4  F5  UNL     1     -33.086   4.757   2.548  1.00 20.00    -0.211 F 
HETATM    5  F6  UNL     1     -32.439   6.812   2.230  1.00 20.00    -0.211 F 
ENDBRANCH   1   3
BRANCH   1   6
HETATM    6  C3  UNL     1     -34.641   5.464   4.879  1.00 20.00     0.423 C 
HETATM    7  F7  UNL     1     -34.782   5.791   6.182  1.00 20.00    -0.168 F 
HETATM    8  F8  UNL     1     -34.323   4.153   4.819  1.00 20.00    -0.168 F 
HETATM    9  F9  UNL     1     -35.840   5.628   4.280  1.00 20.00    -0.168 F 
ENDBRANCH   1   6
TORSDOF 2
