REMARK  1 active torsions:
REMARK  status: ('A' for Active; 'I' for Inactive)
REMARK    1  A    between atoms: C5_5  and  C10_10 
ROOT
HETATM    1  C1  UNL     1     -33.435   7.361   2.954  1.00 20.00     0.011 C 
HETATM    2  C2  UNL     1     -33.586   5.610   1.133  1.00 20.00     0.011 C 
HETATM    3  C3  UNL     1     -34.147   6.417   3.920  1.00 20.00     0.079 C 
HETATM    4  C4  UNL     1     -34.299   4.667   2.099  1.00 20.00     0.079 C 
HETATM    5  C5  UNL     1     -33.829   7.083   1.496  1.00 20.00    -0.007 C 
HETATM    6  C6  UNL     1     -33.928   4.963   3.541  1.00 20.00     0.243 C 
HETATM    7  F11 UNL     1     -32.623   4.641   3.742  1.00 20.00    -0.206 F 
HETATM    8  F12 UNL     1     -34.651   4.166   4.367  1.00 20.00    -0.206 F 
ENDROOT
BRANCH   5   9
HETATM    9  C10 UNL     1     -33.067   8.005   0.547  1.00 20.00    -0.048 C 
HETATM   10  C7  UNL     1     -33.359   9.473   0.902  1.00 20.00     0.015 C 
HETATM   11  C8  UNL     1     -33.509   7.739  -0.902  1.00 20.00     0.015 C 
HETATM   12  C9  UNL     1     -31.556   7.745   0.671  1.00 20.00     0.015 C 
ENDBRANCH   5   9
TORSDOF 1
