REMARK  0 active torsions:
REMARK  status: ('A' for Active; 'I' for Inactive)
ROOT
HETATM    1  C1  UNL     1     -34.445   6.466   4.055  1.00 20.00     0.018 A 
HETATM    2  C2  UNL     1     -34.292   5.869   5.432  1.00 20.00     0.018 A 
HETATM    3  C3  UNL     1     -35.044   5.109   4.359  1.00 20.00     0.083 A 
HETATM    4  C4  UNL     1     -33.242   6.657   3.194  1.00 20.00     0.012 C 
HETATM    5  C5  UNL     1     -34.960   6.516   6.597  1.00 20.00     0.012 C 
HETATM    6 BR6  UNL     1     -36.951   4.971   4.406  1.00 20.00    -0.072 Br
HETATM    7 BR7  UNL     1     -34.246   3.509   3.680  1.00 20.00    -0.072 Br
ENDROOT
TORSDOF 0
