REMARK  0 active torsions:
REMARK  status: ('A' for Active; 'I' for Inactive)
ROOT
HETATM    1  C1  UNL     1     -33.429   6.837   3.060  1.00 20.00     0.064 C 
HETATM    2  C2  UNL     1     -33.365   4.122   5.467  1.00 20.00     0.005 C 
HETATM    3  C3  UNL     1     -34.030   4.081   4.084  1.00 20.00     0.006 C 
HETATM    4  C4  UNL     1     -33.647   6.606   5.551  1.00 20.00     0.024 C 
HETATM    5  C5  UNL     1     -35.520   5.124   5.606  1.00 20.00     0.010 C 
HETATM    6  C6  UNL     1     -34.348   6.613   4.179  1.00 20.00     0.097 C 
HETATM    7  C7  UNL     1     -34.105   5.271   6.169  1.00 20.00    -0.013 C 
HETATM    8  C8  UNL     1     -35.050   5.236   4.152  1.00 20.00     0.003 C 
HETATM    9  N9  UNL     1     -32.702   7.014   2.173  1.00 20.00    -0.197 NA
ENDROOT
TORSDOF 0
