REMARK  3 active torsions:
REMARK  status: ('A' for Active; 'I' for Inactive)
REMARK    1  A    between atoms: C1_1  and  C3_3 
REMARK    2  A    between atoms: C1_1  and  N4_4 
REMARK    3  A    between atoms: C2_2  and  C3_3 
ROOT
HETATM    1  C1  UNL     1     -34.798   6.165   4.156  1.00 20.00     0.222 C 
ENDROOT
BRANCH   1   2
HETATM    2  C3  UNL     1     -34.000   5.173   3.317  1.00 20.00     0.120 C 
HETATM    3 CL8  UNL     1     -34.002   3.548   4.084  1.00 20.00    -0.122 Cl
BRANCH   2   4
HETATM    4  C2  UNL     1     -32.561   5.634   3.064  1.00 20.00     0.136 C 
HETATM    5 CL7  UNL     1     -32.452   7.173   2.172  1.00 20.00    -0.129 Cl
ENDBRANCH   2   4
ENDBRANCH   1   2
BRANCH   1   6
HETATM    6  N4  UNL     1     -34.112   6.356   5.448  1.00 20.00    -0.154 N 
HETATM    7  O5  UNL     1     -33.309   7.300   5.534  1.00 20.00    -0.536 OA
HETATM    8  O6  UNL     1     -34.391   5.573   6.371  1.00 20.00    -0.536 OA
ENDBRANCH   1   6
TORSDOF 3
