REMARK  1 active torsions:
REMARK  status: ('A' for Active; 'I' for Inactive)
REMARK    1  A    between atoms: C8_8  and  C12_12 
ROOT
HETATM    1  C1  UNL     1     -33.556   4.499   5.048  1.00 20.00    -0.023 C 
HETATM    2  C2  UNL     1     -33.654   5.841   5.087  1.00 20.00    -0.081 C 
HETATM    3  C3  UNL     1     -33.934   3.679   3.843  1.00 20.00     0.034 C 
HETATM    4  C4  UNL     1     -35.125   5.741   3.072  1.00 20.00     0.018 C 
HETATM    5  C5  UNL     1     -33.153   4.959   1.767  1.00 20.00     0.173 C 
HETATM    6  C6  UNL     1     -34.157   6.620   3.878  1.00 20.00     0.043 C 
HETATM    7  C7  UNL     1     -34.357   4.504   2.608  1.00 20.00     0.014 C 
HETATM    8  C8  UNL     1     -32.946   7.024   3.007  1.00 20.00     0.133 C 
HETATM    9  C9  UNL     1     -33.273   6.634   6.301  1.00 20.00     0.043 C 
HETATM   10  O13 UNL     1     -32.297   5.867   2.458  1.00 20.00    -0.384 OA
ENDROOT
BRANCH   8  11
HETATM   11  C12 UNL     1     -33.293   8.023   1.904  1.00 20.00     0.007 C 
HETATM   12  C10 UNL     1     -33.886   9.297   2.502  1.00 20.00     0.012 C 
HETATM   13  C11 UNL     1     -32.059   8.346   1.066  1.00 20.00     0.012 C 
ENDBRANCH   8  11
TORSDOF 1
