REMARK  2 active torsions:
REMARK  status: ('A' for Active; 'I' for Inactive)
REMARK    1  A    between atoms: C7_7  and  C8_8 
REMARK    2  A    between atoms: C9_9  and  C10_10 
ROOT
HETATM    1  C1  UNL     1     -32.567   5.064   1.313  1.00 20.00     0.047 C 
HETATM    2  C2  UNL     1     -33.247   4.175   2.069  1.00 20.00    -0.017 C 
HETATM    3  C5  UNL     1     -32.694   6.374   2.039  1.00 20.00     0.154 C 
HETATM    4  C7  UNL     1     -33.554   4.773   3.399  1.00 20.00     0.028 C 
HETATM    5  C10 UNL     1     -33.865   6.220   2.946  1.00 20.00     0.075 C 
HETATM    6  O11 UNL     1     -32.034   7.372   1.829  1.00 20.00    -0.293 OA
ENDROOT
BRANCH   5   7
HETATM    7  C9  UNL     1     -34.465   6.844   4.196  1.00 20.00     0.021 C 
HETATM    8  C4  UNL     1     -33.726   6.538   5.478  1.00 20.00    -0.025 C 
HETATM    9  C3  UNL     1     -33.865   5.222   5.731  1.00 20.00    -0.025 C 
HETATM   10  C8  UNL     1     -34.593   4.605   4.537  1.00 20.00     0.017 C 
HETATM   11  C6  UNL     1     -35.583   5.769   4.364  1.00 20.00     0.018 C 
ENDBRANCH   5   7
TORSDOF 2
