REMARK  1 active torsions:
REMARK  status: ('A' for Active; 'I' for Inactive)
REMARK    1  A    between atoms: C1_1  and  C3_3 
ROOT
HETATM    1  C1  UNL     1     -33.646   6.384   4.401  1.00 20.00     0.038 A 
HETATM    2  C2  UNL     1     -34.094   5.017   3.984  1.00 20.00     0.160 A 
HETATM    3  C4  UNL     1     -33.388   4.653   2.692  1.00 20.00     0.090 A 
HETATM    4  C5  UNL     1     -32.649   6.905   3.453  1.00 20.00     0.039 A 
HETATM    5  C6  UNL     1     -32.485   5.829   2.388  1.00 20.00     0.011 A 
HETATM    6  C7  UNL     1     -32.982   7.214   2.007  1.00 20.00    -0.035 A 
HETATM    7  C9  UNL     1     -34.414   7.418   1.578  1.00 20.00     0.016 C 
HETATM    8  C10 UNL     1     -32.014   8.103   1.264  1.00 20.00     0.016 C 
HETATM    9  O12 UNL     1     -34.896   4.315   4.576  1.00 20.00    -0.293 OA
ENDROOT
BRANCH   1  10
HETATM   10  C3  UNL     1     -34.147   6.966   5.493  1.00 20.00     0.155 C 
HETATM   11  C8  UNL     1     -35.184   6.200   6.299  1.00 20.00     0.096 C 
HETATM   12  O11 UNL     1     -33.909   8.097   6.015  1.00 20.00    -0.293 OA
ENDBRANCH   1  10
TORSDOF 1
