REMARK  1 active torsions:
REMARK  status: ('A' for Active; 'I' for Inactive)
REMARK    1  A    between atoms: C6_6  and  C7_7 
ROOT
HETATM    1  C1  UNL     1     -33.617   6.559   4.820  1.00 20.00     0.051 A 
HETATM    2  C2  UNL     1     -34.576   4.559   3.591  1.00 20.00     0.051 A 
HETATM    3  C3  UNL     1     -33.058   6.975   3.678  1.00 20.00    -0.013 A 
HETATM    4  C4  UNL     1     -34.006   4.997   2.463  1.00 20.00    -0.013 A 
HETATM    5  C5  UNL     1     -34.431   5.323   4.850  1.00 20.00     0.171 A 
HETATM    6  C6  UNL     1     -33.196   6.262   2.359  1.00 20.00     0.044 A 
HETATM    7  O8  UNL     1     -34.963   4.941   5.887  1.00 20.00    -0.289 OA
ENDROOT
BRANCH   6   8
HETATM    8  C7  UNL     1     -33.812   7.197   1.318  1.00 20.00     0.127 C 
HETATM    9 CL9  UNL     1     -32.576   8.293   0.679  1.00 20.00    -0.130 Cl
ENDBRANCH   6   8
TORSDOF 1
