REMARK  0 active torsions:
REMARK  status: ('A' for Active; 'I' for Inactive)
ROOT
HETATM    1  C1  UNL     1     -34.488   6.043   1.922  1.00 20.00     0.009 C 
HETATM    2  C2  UNL     1     -34.113   7.762   3.709  1.00 20.00     0.012 C 
HETATM    3  C3  UNL     1     -32.222   6.285   2.975  1.00 20.00     0.012 C 
HETATM    4  C4  UNL     1     -35.513   5.737   4.192  1.00 20.00     0.051 C 
HETATM    5  C5  UNL     1     -33.624   4.260   3.457  1.00 20.00     0.051 C 
HETATM    6  C6  UNL     1     -35.132   6.770   3.118  1.00 20.00    -0.010 C 
HETATM    7  C7  UNL     1     -33.229   5.283   2.378  1.00 20.00    -0.010 C 
HETATM    8  C8  UNL     1     -32.850   7.011   4.177  1.00 20.00     0.024 C 
HETATM    9  C9  UNL     1     -33.242   5.972   5.239  1.00 20.00     0.213 C 
HETATM   10  C10 UNL     1     -34.257   4.986   4.652  1.00 20.00     0.135 C 
HETATM   11  F11 UNL     1     -33.805   6.613   6.300  1.00 20.00    -0.246 F 
HETATM   12  F12 UNL     1     -34.596   4.075   5.598  1.00 20.00    -0.240 F 
ENDROOT
TORSDOF 0
