REMARK  0 active torsions:
REMARK  status: ('A' for Active; 'I' for Inactive)
ROOT
HETATM    1  C1  UNL     1     -34.198   5.123   6.452  1.00 20.00     0.028 C 
HETATM    2  C2  UNL     1     -34.408   6.612   6.351  1.00 20.00     0.028 C 
HETATM    3  C3  UNL     1     -34.730   4.643   5.119  1.00 20.00     0.167 C 
HETATM    4  C4  UNL     1     -34.100   6.872   4.892  1.00 20.00     0.167 C 
HETATM    5  O5  UNL     1     -34.481   5.692   4.172  1.00 20.00    -0.391 OA
ENDROOT
TORSDOF 0
