REMARK  0 active torsions:
REMARK  status: ('A' for Active; 'I' for Inactive)
ROOT
HETATM    1  C1  UNL     1     -33.123   6.621   3.750  1.00 20.00     0.260 C 
HETATM    2  C2  UNL     1     -33.789   5.700   2.761  1.00 20.00     0.137 C 
HETATM    3  C3  UNL     1     -33.684   4.246   3.189  1.00 20.00     0.177 C 
HETATM    4  C4  UNL     1     -34.848   5.949   5.360  1.00 20.00     0.205 C 
HETATM    5  C5  UNL     1     -34.614   4.448   5.378  1.00 20.00     0.194 C 
HETATM    6  O6  UNL     1     -32.155   7.312   3.440  1.00 20.00    -0.265 OA
HETATM    7  O7  UNL     1     -33.643   6.658   5.001  1.00 20.00    -0.319 OA
HETATM    8  O8  UNL     1     -34.740   3.885   4.075  1.00 20.00    -0.389 OA
ENDROOT
TORSDOF 0
