REMARK  0 active torsions:
REMARK  status: ('A' for Active; 'I' for Inactive)
ROOT
HETATM    1  C1  UNL     1     -33.020   6.477   3.256  1.00 20.00     0.201 C 
HETATM    2  C2  UNL     1     -35.165   5.911   4.437  1.00 20.00     0.099 C 
HETATM    3  C3  UNL     1     -33.969   6.868   4.380  1.00 20.00     0.074 C 
HETATM    4  C4  UNL     1     -33.201   6.938   5.700  1.00 20.00     0.020 C 
HETATM    5  O5  UNL     1     -32.158   7.218   2.802  1.00 20.00    -0.284 OA
HETATM    6  S6  UNL     1     -33.228   4.825   2.678  1.00 20.00    -0.019 SA
HETATM    7  S7  UNL     1     -34.533   4.251   4.139  1.00 20.00    -0.089 SA
ENDROOT
TORSDOF 0
