REMARK  3 active torsions:
REMARK  status: ('A' for Active; 'I' for Inactive)
REMARK    1  A    between atoms: C1_1  and  C7_7 
REMARK    2  A    between atoms: C1_1  and  O9_9 
REMARK    3  A    between atoms: C5_5  and  C7_7 
ROOT
HETATM    1  C2  UNL     1     -32.867   8.394   1.394  1.00 20.00     0.011 A 
HETATM    2  C3  UNL     1     -31.490   7.736   1.247  1.00 20.00     0.011 A 
HETATM    3  C4  UNL     1     -33.303   5.724   1.205  1.00 20.00     0.015 A 
HETATM    4  C5  UNL     1     -33.000   6.005   2.685  1.00 20.00     0.005 A 
HETATM    5  C6  UNL     1     -32.670   6.969   1.638  1.00 20.00    -0.036 A 
ENDROOT
BRANCH   4   6
HETATM    6  C7  UNL     1     -34.114   6.273   3.635  1.00 20.00     0.115 C 
BRANCH   6   7
HETATM    7  C1  UNL     1     -34.741   5.005   4.189  1.00 20.00     0.139 C 
HETATM    8  O8  UNL     1     -34.368   3.868   3.938  1.00 20.00    -0.650 OA
BRANCH   7   9
HETATM    9  O9  UNL     1     -35.784   5.293   5.009  1.00 20.00    -0.776 OA
HETATM   10  H19 UNL     1     -36.197   4.482   5.374  1.00 20.00     0.167 HD
ENDBRANCH   7   9
ENDBRANCH   6   7
ENDBRANCH   4   6
TORSDOF 3
