REMARK  0 active torsions:
REMARK  status: ('A' for Active; 'I' for Inactive)
ROOT
HETATM    1  C1  UNL     1     -35.070   4.725   4.458  1.00 20.00     0.149 C 
HETATM    2  C2  UNL     1     -33.429   6.629   3.310  1.00 20.00     0.149 C 
HETATM    3  C3  UNL     1     -34.276   6.929   5.923  1.00 20.00     0.149 C 
HETATM    4  S4  UNL     1     -33.683   4.835   3.297  1.00 20.00    -0.149 SA
HETATM    5  S5  UNL     1     -34.609   5.163   6.155  1.00 20.00    -0.149 SA
HETATM    6  S6  UNL     1     -32.814   7.245   4.899  1.00 20.00    -0.149 SA
ENDROOT
TORSDOF 0
