REMARK  0 active torsions:
REMARK  status: ('A' for Active; 'I' for Inactive)
ROOT
HETATM    1  C1  UNL     1     -34.233   4.979   6.143  1.00 20.00     0.177 C 
HETATM    2  C2  UNL     1     -33.341   6.949   5.167  1.00 20.00     0.177 C 
HETATM    3  C3  UNL     1     -34.784   4.377   4.860  1.00 20.00     0.100 C 
HETATM    4  C4  UNL     1     -33.757   6.645   3.737  1.00 20.00     0.100 C 
HETATM    5  O5  UNL     1     -34.265   6.405   6.110  1.00 20.00    -0.390 OA
HETATM    6  S6  UNL     1     -33.755   4.853   3.442  1.00 20.00    -0.165 SA
ENDROOT
TORSDOF 0
