REMARK  2 active torsions:
REMARK  status: ('A' for Active; 'I' for Inactive)
REMARK    1  A    between atoms: C1_1  and  C2_2 
REMARK    2  A    between atoms: C1_1  and  C3_3 
ROOT
HETATM    1  C1  UNL     1     -33.701   6.259   4.352  1.00 20.00     0.374 C 
HETATM    2  O4  UNL     1     -34.309   7.359   4.762  1.00 20.00    -0.216 OA
ENDROOT
BRANCH   1   3
HETATM    3  C2  UNL     1     -33.368   6.425   2.865  1.00 20.00     0.424 C 
HETATM    4  F5  UNL     1     -32.917   5.258   2.345  1.00 20.00    -0.168 F 
HETATM    5  F6  UNL     1     -34.436   6.805   2.128  1.00 20.00    -0.168 F 
HETATM    6  F7  UNL     1     -32.389   7.341   2.675  1.00 20.00    -0.168 F 
ENDBRANCH   1   3
BRANCH   1   7
HETATM    7  C3  UNL     1     -34.663   5.081   4.551  1.00 20.00     0.424 C 
HETATM    8  F8  UNL     1     -34.862   4.820   5.865  1.00 20.00    -0.168 F 
HETATM    9  F9  UNL     1     -34.154   3.953   4.002  1.00 20.00    -0.168 F 
HETATM   10  F10 UNL     1     -35.872   5.292   3.985  1.00 20.00    -0.168 F 
ENDBRANCH   1   7
TORSDOF 2
