REMARK  0 active torsions:
REMARK  status: ('A' for Active; 'I' for Inactive)
ROOT
HETATM    1  C1  UNL     1     -35.981   5.797   4.257  1.00 20.00     0.270 A 
HETATM    2  C2  UNL     1     -34.667   5.230   4.871  1.00 20.00     0.072 A 
HETATM    3  C3  UNL     1     -34.103   6.631   4.417  1.00 20.00     0.079 A 
HETATM    4  C4  UNL     1     -34.153   3.987   4.144  1.00 20.00     0.029 C 
HETATM    5  C5  UNL     1     -34.775   4.961   6.372  1.00 20.00     0.029 C 
HETATM    6  C6  UNL     1     -33.084   6.651   3.277  1.00 20.00     0.047 C 
HETATM    7  C7  UNL     1     -33.707   7.625   5.509  1.00 20.00     0.047 C 
HETATM    8  O8  UNL     1     -37.123   5.425   4.101  1.00 20.00    -0.264 OA
HETATM    9  O9  UNL     1     -35.424   6.982   3.895  1.00 20.00    -0.309 OA
ENDROOT
TORSDOF 0
