REMARK  0 active torsions:
REMARK  status: ('A' for Active; 'I' for Inactive)
ROOT
HETATM    1  C1  UNL     1     -33.001   6.858   3.253  1.00 20.00     0.127 C 
HETATM    2  C2  UNL     1     -33.336   5.715   2.319  1.00 20.00     0.078 C 
HETATM    3  C3  UNL     1     -34.106   7.369   4.151  1.00 20.00     0.078 C 
HETATM    4  C4  UNL     1     -33.435   4.362   3.019  1.00 20.00     0.007 C 
HETATM    5  C5  UNL     1     -33.897   6.981   5.608  1.00 20.00     0.007 C 
HETATM    6  C6  UNL     1     -34.638   4.235   3.960  1.00 20.00     0.000 C 
HETATM    7  C7  UNL     1     -33.405   5.557   5.871  1.00 20.00     0.000 C 
HETATM    8  C8  UNL     1     -34.340   4.423   5.451  1.00 20.00     0.000 C 
HETATM    9  O9  UNL     1     -31.867   7.336   3.299  1.00 20.00    -0.298 OA
ENDROOT
TORSDOF 0
