REMARK  1 active torsions:
REMARK  status: ('A' for Active; 'I' for Inactive)
REMARK    1  A    between atoms: C3_3  and  C8_8 
ROOT
HETATM    1  C1  UNL     1     -33.463   4.718   5.988  1.00 20.00    -0.026 C 
HETATM    2  C2  UNL     1     -34.152   4.324   4.907  1.00 20.00    -0.025 C 
HETATM    3  C4  UNL     1     -35.352   6.046   5.869  1.00 20.00     0.017 C 
HETATM    4  C5  UNL     1     -33.304   7.046   5.178  1.00 20.00     0.021 C 
HETATM    5  C6  UNL     1     -33.880   6.137   6.288  1.00 20.00     0.009 C 
HETATM    6  C7  UNL     1     -35.022   5.486   4.480  1.00 20.00     0.019 C 
HETATM    7  C8  UNL     1     -34.127   6.622   3.928  1.00 20.00     0.063 C 
ENDROOT
BRANCH   7   8
HETATM    8  C3  UNL     1     -33.268   6.197   2.777  1.00 20.00     0.128 C 
HETATM    9  C9  UNL     1     -32.326   7.229   2.219  1.00 20.00     0.091 C 
HETATM   10  O10 UNL     1     -33.329   5.060   2.312  1.00 20.00    -0.298 OA
ENDBRANCH   7   8
TORSDOF 1
