REMARK  3 active torsions:
REMARK  status: ('A' for Active; 'I' for Inactive)
REMARK    1  A    between atoms: C1_1  and  C3_3 
REMARK    2  A    between atoms: C1_1  and  O4_4 
REMARK    3  A    between atoms: C2_2  and  O4_4 
ROOT
HETATM    1  C1  UNL     1     -33.586   6.391   4.402  1.00 20.00     0.330 C 
HETATM    2 CL10 UNL     1     -34.213   7.722   5.408  1.00 20.00    -0.086 Cl
ENDROOT
BRANCH   1   3
HETATM    3  C3  UNL     1     -34.458   5.167   4.576  1.00 20.00     0.427 C 
HETATM    4  F7  UNL     1     -34.503   4.759   5.862  1.00 20.00    -0.167 F 
HETATM    5  F8  UNL     1     -33.986   4.137   3.837  1.00 20.00    -0.167 F 
HETATM    6  F9  UNL     1     -35.724   5.405   4.169  1.00 20.00    -0.167 F 
ENDBRANCH   1   3
BRANCH   1   7
HETATM    7  O4  UNL     1     -33.623   6.769   3.027  1.00 20.00    -0.302 OA
BRANCH   7   8
HETATM    8  C2  UNL     1     -32.432   7.406   2.597  1.00 20.00     0.501 C 
HETATM    9  F5  UNL     1     -31.414   6.525   2.758  1.00 20.00    -0.184 F 
HETATM   10  F6  UNL     1     -32.528   7.660   1.269  1.00 20.00    -0.184 F 
ENDBRANCH   7   8
ENDBRANCH   1   7
TORSDOF 3
