REMARK  0 active torsions:
REMARK  status: ('A' for Active; 'I' for Inactive)
ROOT
HETATM    1  C1  UNL     1     -32.672   6.753   2.889  1.00 20.00     0.016 C 
HETATM    2  C2  UNL     1     -32.527   7.223   4.335  1.00 20.00     0.016 C 
HETATM    3  C3  UNL     1     -33.363   5.396   2.953  1.00 20.00     0.140 C 
HETATM    4  C4  UNL     1     -33.898   7.045   4.977  1.00 20.00     0.140 C 
HETATM    5  O5  UNL     1     -34.326   4.453   5.217  1.00 20.00    -0.228 OA
HETATM    6  O6  UNL     1     -35.854   5.812   3.714  1.00 20.00    -0.228 OA
HETATM    7  S7  UNL     1     -34.550   5.535   4.280  1.00 20.00     0.144 S 
ENDROOT
TORSDOF 0
