REMARK  3 active torsions:
REMARK  status: ('A' for Active; 'I' for Inactive)
REMARK    1  A    between atoms: C1_1  and  C3_3 
REMARK    2  A    between atoms: C1_1  and  O6_6 
REMARK    3  A    between atoms: C3_3  and  C4_4 
ROOT
HETATM    1  C1  UNL     1     -33.455   6.136   3.389  1.00 20.00     0.259 C 
HETATM    2  O5  UNL     1     -33.670   4.959   3.136  1.00 20.00    -0.265 OA
ENDROOT
BRANCH   1   3
HETATM    3  C3  UNL     1     -32.696   7.098   2.499  1.00 20.00     0.122 C 
BRANCH   3   4
HETATM    4  C4  UNL     1     -33.622   7.794   1.495  1.00 20.00     0.096 C 
HETATM    5  S7  UNL     1     -32.626   8.873   0.401  1.00 20.00    -0.097 SA
ENDBRANCH   3   4
ENDBRANCH   1   3
BRANCH   1   6
HETATM    6  O6  UNL     1     -33.857   6.800   4.514  1.00 20.00    -0.326 OA
HETATM    7  C2  UNL     1     -34.593   6.018   5.461  1.00 20.00     0.213 C 
ENDBRANCH   1   6
TORSDOF 3
