REMARK  0 active torsions:
REMARK  status: ('A' for Active; 'I' for Inactive)
ROOT
HETATM    1  C1  UNL     1     -34.814   4.630   3.891  1.00 20.00     0.020 C 
HETATM    2  C2  UNL     1     -34.766   4.639   5.417  1.00 20.00     0.075 C 
HETATM    3  C3  UNL     1     -33.568   5.195   3.216  1.00 20.00     0.075 C 
HETATM    4  C4  UNL     1     -33.212   6.913   5.341  1.00 20.00     0.147 C 
HETATM    5  S5  UNL     1     -34.734   6.317   6.114  1.00 20.00    -0.159 SA
HETATM    6  S6  UNL     1     -33.330   6.968   3.538  1.00 20.00    -0.159 SA
ENDROOT
TORSDOF 0
