REMARK  0 active torsions:
REMARK  status: ('A' for Active; 'I' for Inactive)
ROOT
HETATM    1  C1  UNL     1     -33.031   6.863   0.743  1.00 20.00     0.008 C 
HETATM    2  C2  UNL     1     -33.014   5.528   1.287  1.00 20.00     0.028 C 
HETATM    3  C3  UNL     1     -32.717   8.150   2.839  1.00 20.00     0.034 C 
HETATM    4  C4  UNL     1     -32.903   8.023   1.406  1.00 20.00    -0.060 C 
HETATM    5  C5  UNL     1     -33.404   5.138   2.506  1.00 20.00     0.085 C 
HETATM    6  C6  UNL     1     -33.146   7.323   3.802  1.00 20.00     0.086 C 
HETATM    7  C7  UNL     1     -33.855   6.031   3.606  1.00 20.00     0.215 C 
HETATM    8  C8  UNL     1     -32.908   9.332   0.660  1.00 20.00     0.048 C 
HETATM    9  O9  UNL     1     -34.727   5.667   4.393  1.00 20.00    -0.285 OA
HETATM   10 CL10 UNL     1     -33.429   3.444   2.887  1.00 20.00    -0.080 Cl
HETATM   11 CL11 UNL     1     -32.900   7.766   5.464  1.00 20.00    -0.080 Cl
ENDROOT
TORSDOF 0
