REMARK  0 active torsions:
REMARK  status: ('A' for Active; 'I' for Inactive)
ROOT
HETATM    1  C1  UNL     1     -34.815   5.096   4.867  1.00 20.00     0.090 A 
HETATM    2  C2  UNL     1     -33.798   6.859   6.154  1.00 20.00     0.167 A 
HETATM    3  C3  UNL     1     -33.933   5.907   4.183  1.00 20.00     0.109 A 
HETATM    4  N4  UNL     1     -33.349   6.919   4.920  1.00 20.00    -0.246 NA
HETATM    5  S5  UNL     1     -34.924   5.611   6.499  1.00 20.00    -0.092 SA
HETATM    6 BR6  UNL     1     -33.522   5.681   2.348  1.00 20.00    -0.029 Br
ENDROOT
TORSDOF 0
