REMARK  0 active torsions:
REMARK  status: ('A' for Active; 'I' for Inactive)
ROOT
HETATM    1  C1  UNL     1     -33.040   6.918   3.701  1.00 20.00     0.056 C 
HETATM    2  C2  UNL     1     -34.173   6.293   5.492  1.00 20.00     0.264 C 
HETATM    3  C3  UNL     1     -32.129   7.630   3.027  1.00 20.00     0.047 C 
HETATM    4  C4  UNL     1     -34.152   5.094   4.595  1.00 20.00     0.127 C 
HETATM    5  C5  UNL     1     -33.705   5.650   3.253  1.00 20.00     0.010 C 
HETATM    6  C6  UNL     1     -32.777   4.661   2.539  1.00 20.00     0.022 C 
HETATM    7  C7  UNL     1     -34.914   5.970   2.360  1.00 20.00     0.022 C 
HETATM    8  O8  UNL     1     -34.723   6.331   6.584  1.00 20.00    -0.265 OA
HETATM    9  O9  UNL     1     -33.448   7.326   4.971  1.00 20.00    -0.283 OA
ENDROOT
TORSDOF 0
