REMARK  1 active torsions:
REMARK  status: ('A' for Active; 'I' for Inactive)
REMARK    1  A    between atoms: C2_2  and  O3_3 
ROOT
HETATM    1  C2  UNL     1     -34.101   6.154   3.784  1.00 20.00     0.314 C 
HETATM    2 CL4  UNL     1     -34.473   4.475   4.236  1.00 20.00    -0.078 Cl
HETATM    3 CL5  UNL     1     -33.814   7.119   5.247  1.00 20.00    -0.078 Cl
ENDROOT
BRANCH   1   4
HETATM    4  O3  UNL     1     -32.937   6.152   2.966  1.00 20.00    -0.362 OA
HETATM    5  C1  UNL     1     -32.829   7.320   2.165  1.00 20.00     0.204 C 
ENDBRANCH   1   4
TORSDOF 1
