REMARK  0 active torsions:
REMARK  status: ('A' for Active; 'I' for Inactive)
ROOT
HETATM    1  C1  UNL     1     -33.755   6.941   3.999  1.00 20.00     0.142 C 
HETATM    2  C2  UNL     1     -33.614   4.315   2.553  1.00 20.00     0.002 C 
HETATM    3  C3  UNL     1     -33.739   4.416   4.072  1.00 20.00     0.016 C 
HETATM    4  C4  UNL     1     -33.568   5.659   1.830  1.00 20.00     0.016 C 
HETATM    5  C5  UNL     1     -34.433   5.689   4.580  1.00 20.00     0.014 C 
HETATM    6  C6  UNL     1     -33.004   6.821   2.662  1.00 20.00     0.014 C 
HETATM    7  C7  UNL     1     -35.923   5.710   4.212  1.00 20.00     0.023 C 
HETATM    8  C8  UNL     1     -34.307   5.726   6.115  1.00 20.00     0.023 C 
HETATM    9  C9  UNL     1     -31.505   6.644   2.944  1.00 20.00     0.023 C 
HETATM   10  C10 UNL     1     -33.201   8.124   1.863  1.00 20.00     0.023 C 
HETATM   11  O11 UNL     1     -33.813   8.022   4.593  1.00 20.00    -0.296 OA
ENDROOT
TORSDOF 0
