REMARK  0 active torsions:
REMARK  status: ('A' for Active; 'I' for Inactive)
ROOT
HETATM    1  C1  UNL     1     -32.939   6.794   1.883  1.00 20.00    -0.024 C 
HETATM    2  C2  UNL     1     -33.046   7.771   2.794  1.00 20.00    -0.024 C 
HETATM    3  C3  UNL     1     -34.681   5.521   4.030  1.00 20.00     0.164 C 
HETATM    4  C4  UNL     1     -31.830   6.059   3.787  1.00 20.00     0.021 C 
HETATM    5  C5  UNL     1     -32.567   5.502   2.567  1.00 20.00     0.034 C 
HETATM    6  C6  UNL     1     -32.755   7.218   4.167  1.00 20.00     0.034 C 
HETATM    7  C7  UNL     1     -33.840   4.759   2.998  1.00 20.00     0.161 C 
HETATM    8  C8  UNL     1     -34.051   6.690   4.798  1.00 20.00     0.161 C 
HETATM    9  O9  UNL     1     -35.833   5.157   4.286  1.00 20.00    -0.295 OA
HETATM   10 CL10 UNL     1     -33.441   3.183   3.734  1.00 20.00    -0.116 Cl
HETATM   11 CL11 UNL     1     -33.761   6.108   6.459  1.00 20.00    -0.116 Cl
ENDROOT
TORSDOF 0
