REMARK  1 active torsions:
REMARK  status: ('A' for Active; 'I' for Inactive)
REMARK    1  A    between atoms: C8_8  and  O9_9 
ROOT
HETATM    1  C1  UNL     1     -35.039   5.254   6.339  1.00 20.00     0.010 C 
HETATM    2  C2  UNL     1     -33.110   6.417   5.599  1.00 20.00     0.012 C 
HETATM    3  C3  UNL     1     -33.415   3.977   5.175  1.00 20.00     0.012 C 
HETATM    4  C4  UNL     1     -33.524   5.081   6.240  1.00 20.00    -0.013 C 
HETATM    5  C5  UNL     1     -35.254   5.538   4.861  1.00 20.00    -0.001 C 
HETATM    6  C6  UNL     1     -34.136   6.555   4.459  1.00 20.00     0.019 C 
HETATM    7  C7  UNL     1     -34.397   4.476   4.097  1.00 20.00     0.019 C 
HETATM    8  C8  UNL     1     -33.901   5.655   3.213  1.00 20.00     0.127 C 
ENDROOT
BRANCH   8   9
HETATM    9  O9  UNL     1     -32.555   5.578   2.715  1.00 20.00    -0.395 OA
HETATM   10  H21 UNL     1     -32.589   4.986   1.952  1.00 20.00     0.210 HD
ENDBRANCH   8   9
TORSDOF 1
