REMARK  0 active torsions:
REMARK  status: ('A' for Active; 'I' for Inactive)
ROOT
HETATM    1  C1  UNL     1     -33.668   5.290   2.203  1.00 20.00     0.009 A 
HETATM    2  C2  UNL     1     -33.179   6.400   1.514  1.00 20.00     0.019 A 
HETATM    3  C3  UNL     1     -33.323   7.719   3.533  1.00 20.00     0.034 A 
HETATM    4  C4  UNL     1     -33.815   6.606   4.224  1.00 20.00     0.017 A 
HETATM    5  C5  UNL     1     -33.980   5.377   3.567  1.00 20.00    -0.044 A 
HETATM    6  C6  UNL     1     -33.004   7.612   2.179  1.00 20.00     0.011 A 
HETATM    7  C7  UNL     1     -34.174   6.738   5.660  1.00 20.00     0.160 C 
HETATM    8  C8  UNL     1     -34.525   4.169   4.281  1.00 20.00     0.040 C 
HETATM    9  C9  UNL     1     -34.730   5.526   6.374  1.00 20.00     0.084 C 
HETATM   10  C10 UNL     1     -34.217   4.228   5.771  1.00 20.00     0.012 C 
HETATM   11  O11 UNL     1     -34.068   7.820   6.231  1.00 20.00    -0.292 OA
HETATM   12 BR12 UNL     1     -32.343   9.115   1.243  1.00 20.00    -0.051 Br
ENDROOT
TORSDOF 0
