REMARK  3 active torsions:
REMARK  status: ('A' for Active; 'I' for Inactive)
REMARK    1  A    between atoms: C4_4  and  C5_5 
REMARK    2  A    between atoms: C5_5  and  C6_6 
REMARK    3  A    between atoms: C6_6  and  N7_7 
ROOT
HETATM    1  C1  UNL     1     -32.493   7.668   1.730  1.00 20.00     0.158 C 
HETATM    2  N7  UNL     1     -32.041   7.019   2.597  1.00 20.00    -0.271 NA
HETATM    3  S8  UNL     1     -33.077   8.564   0.550  1.00 20.00    -0.055 SA
ENDROOT
BRANCH   2   4
HETATM    4  C6  UNL     1     -32.958   6.021   3.160  1.00 20.00     0.105 C 
HETATM    5  C3  UNL     1     -33.333   5.050   2.048  1.00 20.00     0.034 C 
BRANCH   4   6
HETATM    6  C5  UNL     1     -34.196   6.729   3.719  1.00 20.00     0.026 C 
BRANCH   6   7
HETATM    7  C4  UNL     1     -35.204   5.748   4.326  1.00 20.00    -0.002 C 
HETATM    8  C2  UNL     1     -34.581   4.938   5.453  1.00 20.00     0.005 C 
ENDBRANCH   6   7
ENDBRANCH   4   6
ENDBRANCH   2   4
TORSDOF 3
