REMARK  1 active torsions:
REMARK  status: ('A' for Active; 'I' for Inactive)
REMARK    1  A    between atoms: C2_2  and  C4_4 
ROOT
HETATM    1  C1  UNL     1     -34.680   4.650   4.859  1.00 20.00     0.207 A 
HETATM    2  C2  UNL     1     -34.142   5.978   4.382  1.00 20.00     0.091 A 
HETATM    3  C3  UNL     1     -34.180   7.159   5.297  1.00 20.00     0.049 C 
HETATM    4  O5  UNL     1     -35.439   5.507   3.992  1.00 20.00    -0.374 OA
ENDROOT
BRANCH   2   5
HETATM    5  C4  UNL     1     -33.152   6.012   3.263  1.00 20.00     0.154 C 
HETATM    6 CL6  UNL     1     -33.105   7.621   2.495  1.00 20.00    -0.127 Cl
ENDBRANCH   2   5
TORSDOF 1
