REMARK  3 active torsions:
REMARK  status: ('A' for Active; 'I' for Inactive)
REMARK    1  A    between atoms: C7_7  and  C8_8 
REMARK    2  A    between atoms: C7_7  and  N9_9 
REMARK    3  A    between atoms: C8_8  and  N10_10 
ROOT
HETATM    1  C1  UNL     1     -33.088   9.778   1.172  1.00 20.00     0.157 C 
HETATM    2  N9  UNL     1     -32.897   8.638   0.965  1.00 20.00    -0.274 NA
HETATM    3  S11 UNL     1     -33.349  11.329   1.422  1.00 20.00    -0.055 SA
ENDROOT
BRANCH   2   4
HETATM    4  C7  UNL     1     -32.715   7.817   2.164  1.00 20.00     0.178 C 
BRANCH   4   5
HETATM    5  C8  UNL     1     -34.057   7.286   2.630  1.00 20.00     0.256 C 
BRANCH   5   6
HETATM    6  N10 UNL     1     -33.872   6.472   3.882  1.00 20.00    -0.070 N 
HETATM    7  C5  UNL     1     -33.794   7.347   5.110  1.00 20.00     0.235 C 
HETATM    8  C3  UNL     1     -33.485   6.486   6.326  1.00 20.00     0.028 C 
HETATM    9  C2  UNL     1     -34.502   5.363   6.495  1.00 20.00     0.003 C 
HETATM   10  C4  UNL     1     -34.625   4.532   5.222  1.00 20.00     0.028 C 
HETATM   11  C6  UNL     1     -34.929   5.400   4.010  1.00 20.00     0.235 C 
HETATM   12  H26 UNL     1     -32.964   5.996   3.787  1.00 20.00     0.279 HD
ENDBRANCH   5   6
ENDBRANCH   4   5
ENDBRANCH   2   4
TORSDOF 3
