REMARK  0 active torsions:
REMARK  status: ('A' for Active; 'I' for Inactive)
ROOT
HETATM    1  C1  UNL     1     -33.408   6.728   3.899  1.00 20.00     0.086 C 
HETATM    2  C2  UNL     1     -34.578   6.341   4.681  1.00 20.00     0.235 C 
HETATM    3  N3  UNL     1     -32.480   7.038   3.274  1.00 20.00    -0.195 NA
HETATM    4 BR4  UNL     1     -34.339   6.830   6.551  1.00 20.00    -0.063 Br
HETATM    5 BR5  UNL     1     -34.937   4.438   4.473  1.00 20.00    -0.063 Br
ENDROOT
TORSDOF 0
