REMARK  1 active torsions:
REMARK  status: ('A' for Active; 'I' for Inactive)
REMARK    1  A    between atoms: C5_5  and  C6_6 
ROOT
HETATM    1  C1  UNL     1     -32.458   6.893   1.766  1.00 20.00     0.061 C 
HETATM    2  C6  UNL     1     -32.507   5.733   2.650  1.00 20.00     0.155 C 
HETATM    3  N7  UNL     1     -32.398   7.808   1.054  1.00 20.00    -0.197 NA
ENDROOT
BRANCH   2   4
HETATM    4  C5  UNL     1     -33.830   5.865   3.380  1.00 20.00     0.134 C 
HETATM    5  C3  UNL     1     -34.276   4.583   4.062  1.00 20.00     0.035 C 
HETATM    6  C2  UNL     1     -35.152   5.119   5.166  1.00 20.00     0.029 C 
HETATM    7  C4  UNL     1     -34.402   6.366   5.583  1.00 20.00     0.168 C 
HETATM    8  O8  UNL     1     -33.718   6.852   4.418  1.00 20.00    -0.385 OA
ENDBRANCH   2   4
TORSDOF 1
