REMARK  1 active torsions:
REMARK  status: ('A' for Active; 'I' for Inactive)
REMARK    1  A    between atoms: C3_3  and  C6_6 
ROOT
HETATM    1  C1  UNL     1     -33.004   6.838   4.636  1.00 20.00     0.272 C 
HETATM    2  C2  UNL     1     -32.987   5.847   2.514  1.00 20.00     0.055 C 
HETATM    3  C3  UNL     1     -33.039   5.478   3.984  1.00 20.00     0.195 C 
HETATM    4  C4  UNL     1     -32.128   7.092   2.535  1.00 20.00     0.129 C 
HETATM    5  C5  UNL     1     -32.377   8.013   1.355  1.00 20.00     0.040 C 
HETATM    6  O7  UNL     1     -33.346   7.097   5.779  1.00 20.00    -0.265 OA
HETATM    7  O8  UNL     1     -32.493   7.754   3.754  1.00 20.00    -0.316 OA
ENDROOT
BRANCH   3   8
HETATM    8  C6  UNL     1     -34.279   4.683   4.347  1.00 20.00     0.400 C 
HETATM    9  F9  UNL     1     -34.327   4.467   5.674  1.00 20.00    -0.170 F 
HETATM   10  F10 UNL     1     -35.389   5.350   3.983  1.00 20.00    -0.170 F 
HETATM   11  F11 UNL     1     -34.273   3.492   3.721  1.00 20.00    -0.170 F 
ENDBRANCH   3   8
TORSDOF 1
