REMARK  1 active torsions:
REMARK  status: ('A' for Active; 'I' for Inactive)
REMARK    1  A    between atoms: C7_7  and  C11_11 
ROOT
HETATM    1  C1  UNL     1     -34.690   5.584   4.564  1.00 20.00    -0.018 C 
HETATM    2  C2  UNL     1     -33.976   5.931   3.299  1.00 20.00     0.159 C 
HETATM    3  C3  UNL     1     -35.870   4.957   4.462  1.00 20.00     0.023 C 
HETATM    4  C4  UNL     1     -33.490   7.419   5.774  1.00 20.00     0.010 C 
HETATM    5  C5  UNL     1     -32.587   7.618   4.557  1.00 20.00     0.013 C 
HETATM    6  C6  UNL     1     -34.056   5.994   5.866  1.00 20.00     0.017 C 
HETATM    7  C7  UNL     1     -33.325   7.310   3.251  1.00 20.00     0.063 C 
HETATM    8  C8  UNL     1     -32.984   4.980   6.279  1.00 20.00     0.015 C 
HETATM    9  O12 UNL     1     -33.983   5.164   2.339  1.00 20.00    -0.292 OA
ENDROOT
BRANCH   7  10
HETATM   10  C11 UNL     1     -32.375   7.434   2.062  1.00 20.00    -0.011 C 
HETATM   11  C9  UNL     1     -33.156   7.682   0.774  1.00 20.00     0.010 C 
HETATM   12  C10 UNL     1     -31.361   8.552   2.300  1.00 20.00     0.010 C 
ENDBRANCH   7  10
TORSDOF 1
