REMARK  2 active torsions:
REMARK  status: ('A' for Active; 'I' for Inactive)
REMARK    1  A    between atoms: C1_1  and  C3_3 
REMARK    2  A    between atoms: C2_2  and  C8_8 
ROOT
HETATM    1  C1  UNL     1     -33.373   7.208   2.625  1.00 20.00     0.052 C 
HETATM    2  C2  UNL     1     -33.352   5.973   3.162  1.00 20.00    -0.077 C 
HETATM    3  C4  UNL     1     -32.775   4.759   2.482  1.00 20.00     0.044 C 
ENDROOT
BRANCH   2   4
HETATM    4  C8  UNL     1     -33.937   5.766   4.559  1.00 20.00     0.006 C 
HETATM    5  C6  UNL     1     -33.745   6.994   5.453  1.00 20.00     0.014 C 
HETATM    6  C7  UNL     1     -35.412   5.357   4.506  1.00 20.00     0.014 C 
ENDBRANCH   2   4
BRANCH   1   7
HETATM    7  C3  UNL     1     -32.835   7.577   1.285  1.00 20.00     0.145 C 
HETATM    8  C5  UNL     1     -32.966   9.023   0.885  1.00 20.00     0.096 C 
HETATM    9  O9  UNL     1     -32.354   6.746   0.519  1.00 20.00    -0.294 OA
ENDBRANCH   1   7
TORSDOF 2
