REMARK  1 active torsions:
REMARK  status: ('A' for Active; 'I' for Inactive)
REMARK    1  A    between atoms: C4_4  and  C7_7 
ROOT
HETATM    1  C1  UNL     1     -33.195   6.339   1.430  1.00 20.00     0.015 A 
HETATM    2  C2  UNL     1     -33.542   5.195   2.149  1.00 20.00     0.008 A 
HETATM    3  C3  UNL     1     -33.584   7.687   3.393  1.00 20.00     0.022 A 
HETATM    4  C4  UNL     1     -33.218   7.584   2.051  1.00 20.00     0.002 A 
HETATM    5  C5  UNL     1     -33.921   5.286   3.497  1.00 20.00    -0.052 A 
HETATM    6  C6  UNL     1     -33.925   6.543   4.130  1.00 20.00    -0.051 A 
HETATM    7  C8  UNL     1     -34.257   4.023   4.249  1.00 20.00     0.039 C 
HETATM    8  C9  UNL     1     -34.347   6.698   5.570  1.00 20.00     0.039 C 
HETATM    9  C10 UNL     1     -35.004   4.280   5.557  1.00 20.00     0.005 C 
HETATM   10  C11 UNL     1     -34.321   5.386   6.351  1.00 20.00     0.005 C 
ENDROOT
BRANCH   4  11
HETATM   11  C7  UNL     1     -32.863   8.778   1.301  1.00 20.00     0.269 C 
HETATM   12  O12 UNL     1     -32.531   8.754   0.113  1.00 20.00    -0.301 OA
ENDBRANCH   4  11
TORSDOF 1
