REMARK  2 active torsions:
REMARK  status: ('A' for Active; 'I' for Inactive)
REMARK    1  A    between atoms: P5_5  and  P6_6 
REMARK    2  A    between atoms: P5_5  and  S8_8 
ROOT
HETATM    1  C1  UNL     1     -32.848   7.496   5.100  1.00 20.00     0.061 C 
HETATM    2  P5  UNL     1     -34.242   7.147   3.968  1.00 20.00    -0.021 P 
ENDROOT
BRANCH   2   3
HETATM    3  P6  UNL     1     -35.073   5.340   4.789  1.00 20.00    -0.027 P 
HETATM    4  C2  UNL     1     -34.089   3.935   4.263  1.00 20.00     0.060 C 
HETATM    5  C3  UNL     1     -34.750   5.409   6.558  1.00 20.00     0.060 C 
HETATM    6  S7  UNL     1     -36.965   5.225   4.342  1.00 20.00    -0.092 SA
ENDBRANCH   2   3
BRANCH   2   7
HETATM    7  S8  UNL     1     -33.250   6.424   2.254  1.00 20.00    -0.137 SA
HETATM    8  C4  UNL     1     -32.646   7.875   1.366  1.00 20.00     0.095 C 
ENDBRANCH   2   7
TORSDOF 2
