REMARK  1 active torsions:
REMARK  status: ('A' for Active; 'I' for Inactive)
REMARK    1  A    between atoms: C1_1  and  C3_3 
ROOT
HETATM    1  C2  UNL     1     -34.521   6.960   3.725  1.00 20.00     0.065 A 
HETATM    2  C3  UNL     1     -33.124   6.386   3.590  1.00 20.00     0.070 A 
HETATM    3  C4  UNL     1     -34.111   5.812   4.607  1.00 20.00     0.130 A 
HETATM    4  C5  UNL     1     -31.982   7.255   4.066  1.00 20.00     0.028 C 
HETATM    5 CL8  UNL     1     -34.879   4.248   4.303  1.00 20.00    -0.100 Cl
HETATM    6 CL9  UNL     1     -33.904   6.129   6.330  1.00 20.00    -0.100 Cl
ENDROOT
BRANCH   2   7
HETATM    7  C1  UNL     1     -32.844   5.587   2.372  1.00 20.00     0.230 C 
HETATM    8  O6  UNL     1     -32.499   4.410   2.437  1.00 20.00    -0.279 OA
HETATM    9 CL7  UNL     1     -33.064   6.512   0.917  1.00 20.00    -0.043 Cl
ENDBRANCH   2   7
TORSDOF 1
