REMARK  1 active torsions:
REMARK  status: ('A' for Active; 'I' for Inactive)
REMARK    1  A    between atoms: C1_1  and  C2_2 
ROOT
HETATM    1  C2  UNL     1     -34.652   5.426   4.641  1.00 20.00     0.391 C 
HETATM    2  F4  UNL     1     -35.922   5.612   4.192  1.00 20.00    -0.178 F 
HETATM    3  F5  UNL     1     -34.591   4.150   5.102  1.00 20.00    -0.178 F 
HETATM    4 CL6  UNL     1     -34.330   6.554   5.965  1.00 20.00    -0.039 Cl
ENDROOT
BRANCH   1   5
HETATM    5  C1  UNL     1     -33.653   5.693   3.560  1.00 20.00     0.282 C 
HETATM    6  O3  UNL     1     -33.148   6.786   3.341  1.00 20.00    -0.277 OA
HETATM    7 BR7  UNL     1     -33.057   4.249   2.467  1.00 20.00    -0.001 Br
ENDBRANCH   1   5
TORSDOF 1
