REMARK  1 active torsions:
REMARK  status: ('A' for Active; 'I' for Inactive)
REMARK    1  A    between atoms: C5_5  and  C8_8 
ROOT
HETATM    1  C1  UNL     1     -32.798   6.852   4.456  1.00 20.00     0.010 C 
HETATM    2  C2  UNL     1     -33.902   6.695   5.500  1.00 20.00     0.035 C 
HETATM    3  C3  UNL     1     -33.915   5.323   2.788  1.00 20.00     0.041 C 
HETATM    4  C5  UNL     1     -33.351   6.734   3.026  1.00 20.00     0.019 C 
HETATM    5  C6  UNL     1     -34.763   5.499   5.245  1.00 20.00     0.151 A 
HETATM    6  C7  UNL     1     -34.800   4.841   3.892  1.00 20.00     0.151 A 
HETATM    7  O10 UNL     1     -35.825   5.747   4.303  1.00 20.00    -0.375 OA
ENDROOT
BRANCH   4   8
HETATM    8  C8  UNL     1     -32.290   7.063   2.008  1.00 20.00     0.149 A 
HETATM    9  C4  UNL     1     -32.007   8.481   1.644  1.00 20.00     0.200 A 
HETATM   10  O9  UNL     1     -32.805   7.627   0.809  1.00 20.00    -0.381 OA
ENDBRANCH   4   8
TORSDOF 1
