REMARK  1 active torsions:
REMARK  status: ('A' for Active; 'I' for Inactive)
REMARK    1  A    between atoms: C1_1  and  C6_6 
ROOT
HETATM    1  C2  UNL     1     -32.854   7.774   1.124  1.00 20.00     0.005 C 
HETATM    2  C3  UNL     1     -33.201   8.821   2.194  1.00 20.00     0.006 C 
HETATM    3  C4  UNL     1     -33.592   5.926   2.653  1.00 20.00     0.017 C 
HETATM    4  C5  UNL     1     -31.677   7.258   3.125  1.00 20.00     0.010 C 
HETATM    5  C6  UNL     1     -33.994   6.987   3.692  1.00 20.00     0.059 C 
HETATM    6  C7  UNL     1     -32.378   6.570   1.957  1.00 20.00    -0.013 C 
HETATM    7  C8  UNL     1     -32.914   8.075   3.509  1.00 20.00    -0.003 C 
ENDROOT
BRANCH   5   8
HETATM    8  C1  UNL     1     -33.988   6.427   5.081  1.00 20.00     0.127 C 
HETATM    9  C9  UNL     1     -34.949   5.303   5.362  1.00 20.00     0.091 C 
HETATM   10  O10 UNL     1     -33.234   6.863   5.950  1.00 20.00    -0.298 OA
ENDBRANCH   5   8
TORSDOF 1
