REMARK  2 active torsions:
REMARK  status: ('A' for Active; 'I' for Inactive)
REMARK    1  A    between atoms: C3_3  and  C7_7 
REMARK    2  A    between atoms: C4_4  and  C8_8 
ROOT
HETATM    1  C5  UNL     1     -34.415   4.622   3.666  1.00 20.00     0.014 C 
HETATM    2  C6  UNL     1     -33.850   5.422   2.488  1.00 20.00     0.037 C 
HETATM    3  C7  UNL     1     -35.071   5.547   4.697  1.00 20.00     0.036 C 
HETATM    4  C8  UNL     1     -33.567   6.880   2.861  1.00 20.00     0.144 C 
HETATM    5  C9  UNL     1     -34.060   6.616   5.189  1.00 20.00     0.126 C 
HETATM    6  C10 UNL     1     -33.274   6.225   6.440  1.00 20.00     0.040 C 
HETATM    7  O11 UNL     1     -33.067   6.928   4.195  1.00 20.00    -0.377 OA
ENDROOT
BRANCH   3   8
HETATM    8  C3  UNL     1     -35.734   4.771   5.792  1.00 20.00    -0.030 C 
HETATM    9  C1  UNL     1     -37.050   4.787   6.029  1.00 20.00     0.007 C 
ENDBRANCH   3   8
BRANCH   4  10
HETATM   10  C4  UNL     1     -32.559   7.499   1.951  1.00 20.00    -0.005 C 
HETATM   11  C2  UNL     1     -32.787   8.590   1.212  1.00 20.00     0.009 C 
ENDBRANCH   4  10
TORSDOF 2
