REMARK  2 active torsions:
REMARK  status: ('A' for Active; 'I' for Inactive)
REMARK    1  A    between atoms: C3_3  and  C7_7 
REMARK    2  A    between atoms: C4_4  and  C8_8 
ROOT
HETATM    1  C5  UNL     1     -32.227   7.907   3.904  1.00 20.00     0.014 C 
HETATM    2  C6  UNL     1     -32.604   7.391   5.286  1.00 20.00     0.037 C 
HETATM    3  C7  UNL     1     -32.397   6.812   2.834  1.00 20.00     0.036 C 
HETATM    4  C8  UNL     1     -34.048   6.871   5.280  1.00 20.00     0.144 C 
HETATM    5  C9  UNL     1     -33.302   5.664   3.338  1.00 20.00     0.126 C 
HETATM    6  C10 UNL     1     -33.845   4.755   2.240  1.00 20.00     0.040 C 
HETATM    7  O11 UNL     1     -34.411   6.196   4.068  1.00 20.00    -0.377 OA
ENDROOT
BRANCH   3   8
HETATM    8  C3  UNL     1     -32.866   7.438   1.552  1.00 20.00    -0.030 C 
HETATM    9  C1  UNL     1     -32.157   7.444   0.419  1.00 20.00     0.007 C 
ENDBRANCH   3   8
BRANCH   4  10
HETATM   10  C4  UNL     1     -34.328   5.975   6.444  1.00 20.00    -0.005 C 
HETATM   11  C2  UNL     1     -34.743   4.709   6.330  1.00 20.00     0.009 C 
ENDBRANCH   4  10
TORSDOF 2
