REMARK  1 active torsions:
REMARK  status: ('A' for Active; 'I' for Inactive)
REMARK    1  A    between atoms: C1_1  and  C5_5 
ROOT
HETATM    1  C2  UNL     1     -32.969   8.578   3.313  1.00 20.00     0.006 C 
HETATM    2  C3  UNL     1     -33.109   8.037   1.885  1.00 20.00     0.006 C 
HETATM    3  C4  UNL     1     -31.238   7.017   2.882  1.00 20.00     0.011 C 
HETATM    4  C5  UNL     1     -32.957   6.206   4.291  1.00 20.00     0.067 C 
HETATM    5  C6  UNL     1     -32.140   7.491   4.025  1.00 20.00    -0.002 C 
HETATM    6  C7  UNL     1     -32.426   6.661   1.974  1.00 20.00    -0.006 C 
HETATM    7  C8  UNL     1     -33.250   5.663   2.858  1.00 20.00    -0.033 C 
HETATM    8  C10 UNL     1     -32.686   4.234   2.707  1.00 20.00     0.016 C 
HETATM    9  C11 UNL     1     -34.736   5.606   2.473  1.00 20.00     0.016 C 
ENDROOT
BRANCH   4  10
HETATM   10  C1  UNL     1     -34.139   6.441   5.181  1.00 20.00     0.128 C 
HETATM   11  C9  UNL     1     -34.032   7.577   6.163  1.00 20.00     0.091 C 
HETATM   12  O12 UNL     1     -35.149   5.742   5.112  1.00 20.00    -0.298 OA
ENDBRANCH   4  10
TORSDOF 1
