REMARK  1 active torsions:
REMARK  status: ('A' for Active; 'I' for Inactive)
REMARK    1  A    between atoms: C3_3  and  C7_7 
ROOT
HETATM    1  C1  UNL     1     -34.088   6.917   4.950  1.00 20.00    -0.019 C 
HETATM    2  C2  UNL     1     -34.385   5.611   4.839  1.00 20.00    -0.087 C 
HETATM    3  C4  UNL     1     -33.960   4.794   3.647  1.00 20.00     0.034 C 
HETATM    4  C5  UNL     1     -33.523   5.650   2.458  1.00 20.00     0.016 C 
HETATM    5  C6  UNL     1     -33.276   7.693   3.939  1.00 20.00     0.015 C 
HETATM    6  C7  UNL     1     -32.590   6.777   2.902  1.00 20.00     0.054 C 
HETATM    7  C8  UNL     1     -35.162   4.882   5.896  1.00 20.00     0.043 C 
HETATM    8  C9  UNL     1     -32.236   8.557   4.663  1.00 20.00     0.015 C 
ENDROOT
BRANCH   6   9
HETATM    9  C3  UNL     1     -32.187   7.574   1.698  1.00 20.00     0.236 C 
HETATM   10  O10 UNL     1     -32.983   8.191   0.998  1.00 20.00    -0.306 OA
ENDBRANCH   6   9
TORSDOF 1
