REMARK  1 active torsions:
REMARK  status: ('A' for Active; 'I' for Inactive)
REMARK    1  A    between atoms: C2_2  and  C5_5 
ROOT
HETATM    1  C3  UNL     1     -33.395   4.771   2.200  1.00 20.00     0.039 C 
HETATM    2  C4  UNL     1     -34.085   4.217   3.424  1.00 20.00     0.040 C 
HETATM    3  C5  UNL     1     -32.879   6.106   2.712  1.00 20.00     0.151 C 
HETATM    4  C6  UNL     1     -34.691   5.468   4.059  1.00 20.00     0.054 C 
HETATM    5  C9  UNL     1     -34.746   5.365   5.580  1.00 20.00     0.045 C 
HETATM    6  C10 UNL     1     -36.081   5.781   3.499  1.00 20.00     0.045 C 
HETATM    7  O11 UNL     1     -33.818   6.559   3.702  1.00 20.00    -0.371 OA
ENDROOT
BRANCH   3   8
HETATM    8  C2  UNL     1     -32.737   7.142   1.653  1.00 20.00    -0.059 C 
HETATM    9  C1  UNL     1     -32.959   8.444   1.918  1.00 20.00    -0.026 C 
HETATM   10  C7  UNL     1     -32.862   9.583   0.986  1.00 20.00     0.036 C 
HETATM   11  C8  UNL     1     -32.334   6.621   0.303  1.00 20.00     0.046 C 
ENDBRANCH   3   8
TORSDOF 1
