REMARK  1 active torsions:
REMARK  status: ('A' for Active; 'I' for Inactive)
REMARK    1  A    between atoms: C3_3  and  C6_6 
ROOT
HETATM    1  C1  UNL     1     -34.824   6.002   4.244  1.00 20.00    -0.024 C 
HETATM    2  C2  UNL     1     -33.888   6.799   4.786  1.00 20.00    -0.087 C 
HETATM    3  C4  UNL     1     -34.714   5.396   2.877  1.00 20.00     0.032 C 
HETATM    4  C5  UNL     1     -32.629   7.183   4.046  1.00 20.00     0.045 C 
HETATM    5  C6  UNL     1     -32.619   6.802   2.557  1.00 20.00     0.055 C 
HETATM    6  C7  UNL     1     -33.297   5.449   2.275  1.00 20.00    -0.004 C 
HETATM    7  C8  UNL     1     -34.033   7.360   6.171  1.00 20.00     0.043 C 
HETATM    8  C9  UNL     1     -32.438   4.288   2.795  1.00 20.00     0.011 C 
ENDROOT
BRANCH   5   9
HETATM    9  C3  UNL     1     -33.275   7.878   1.737  1.00 20.00     0.236 C 
HETATM   10  O10 UNL     1     -32.944   8.147   0.587  1.00 20.00    -0.306 OA
ENDBRANCH   5   9
TORSDOF 1
