REMARK  2 active torsions:
REMARK  status: ('A' for Active; 'I' for Inactive)
REMARK    1  A    between atoms: C6_6  and  C8_8 
REMARK    2  A    between atoms: C8_8  and  O9_9 
ROOT
HETATM    1  C1  UNL     1     -31.920   7.989   2.241  1.00 20.00    -0.030 C 
HETATM    2  C2  UNL     1     -31.685   8.018   3.560  1.00 20.00    -0.030 C 
HETATM    3  C3  UNL     1     -32.994   7.148   1.617  1.00 20.00     0.031 C 
HETATM    4  C4  UNL     1     -32.487   7.234   4.556  1.00 20.00     0.034 C 
HETATM    5  C5  UNL     1     -33.554   6.055   2.552  1.00 20.00    -0.009 C 
HETATM    6  C6  UNL     1     -33.784   6.650   3.963  1.00 20.00     0.016 C 
HETATM    7  C7  UNL     1     -32.645   4.818   2.548  1.00 20.00     0.011 C 
ENDROOT
BRANCH   6   8
HETATM    8  C8  UNL     1     -34.424   5.660   4.936  1.00 20.00     0.169 C 
BRANCH   8   9
HETATM    9  O9  UNL     1     -35.613   5.162   4.352  1.00 20.00    -0.400 OA
HETATM   10  H23 UNL     1     -36.003   4.536   4.986  1.00 20.00     0.209 HD
ENDBRANCH   8   9
ENDBRANCH   6   8
TORSDOF 2
