REMARK  2 active torsions:
REMARK  status: ('A' for Active; 'I' for Inactive)
REMARK    1  A    between atoms: C6_6  and  C8_8 
REMARK    2  A    between atoms: C8_8  and  O9_9 
ROOT
HETATM    1  C1  UNL     1     -34.751   5.313   5.945  1.00 20.00    -0.030 C 
HETATM    2  C2  UNL     1     -34.022   6.379   6.298  1.00 20.00    -0.030 C 
HETATM    3  C3  UNL     1     -34.773   4.762   4.551  1.00 20.00     0.031 C 
HETATM    4  C4  UNL     1     -33.177   7.148   5.330  1.00 20.00     0.034 C 
HETATM    5  C5  UNL     1     -33.638   5.302   3.655  1.00 20.00    -0.009 C 
HETATM    6  C6  UNL     1     -33.483   6.829   3.851  1.00 20.00     0.016 C 
HETATM    7  C7  UNL     1     -33.903   4.902   2.202  1.00 20.00     0.011 C 
ENDROOT
BRANCH   6   8
HETATM    8  C8  UNL     1     -32.401   7.445   2.962  1.00 20.00     0.169 C 
BRANCH   8   9
HETATM    9  O9  UNL     1     -32.908   7.544   1.645  1.00 20.00    -0.400 OA
HETATM   10  H23 UNL     1     -32.208   7.937   1.096  1.00 20.00     0.209 HD
ENDBRANCH   8   9
ENDBRANCH   6   8
TORSDOF 2
