REMARK  1 active torsions:
REMARK  status: ('A' for Active; 'I' for Inactive)
REMARK    1  A    between atoms: C3_3  and  C7_7 
ROOT
HETATM    1  C1  UNL     1     -34.462   5.295   4.200  1.00 20.00    -0.019 C 
HETATM    2  C2  UNL     1     -34.388   5.925   5.386  1.00 20.00    -0.087 C 
HETATM    3  C4  UNL     1     -33.509   7.131   5.595  1.00 20.00     0.034 C 
HETATM    4  C5  UNL     1     -33.034   7.764   4.287  1.00 20.00     0.016 C 
HETATM    5  C6  UNL     1     -33.661   5.685   2.980  1.00 20.00     0.015 C 
HETATM    6  C7  UNL     1     -32.545   6.699   3.305  1.00 20.00     0.054 C 
HETATM    7  C8  UNL     1     -35.178   5.469   6.577  1.00 20.00     0.043 C 
HETATM    8  C9  UNL     1     -33.070   4.431   2.325  1.00 20.00     0.015 C 
ENDROOT
BRANCH   6   9
HETATM    9  C3  UNL     1     -32.077   7.387   2.056  1.00 20.00     0.236 C 
HETATM   10  O10 UNL     1     -32.813   8.051   1.334  1.00 20.00    -0.306 OA
ENDBRANCH   6   9
TORSDOF 1
