REMARK  2 active torsions:
REMARK  status: ('A' for Active; 'I' for Inactive)
REMARK    1  A    between atoms: C1_1  and  O5_5 
REMARK    2  A    between atoms: C3_3  and  O5_5 
ROOT
HETATM    1  O5  UNL     1     -33.695   6.845   3.816  1.00 20.00    -0.288 OA
ENDROOT
BRANCH   1   2
HETATM    2  C1  UNL     1     -32.954   6.405   2.750  1.00 20.00     0.359 C 
HETATM    3  O4  UNL     1     -32.515   5.263   2.658  1.00 20.00    -0.245 OA
HETATM    4 CL6  UNL     1     -32.712   7.650   1.553  1.00 20.00    -0.012 Cl
ENDBRANCH   1   2
BRANCH   1   5
HETATM    5  C3  UNL     1     -33.967   5.911   4.875  1.00 20.00     0.224 C 
HETATM    6  C2  UNL     1     -35.177   5.061   4.525  1.00 20.00     0.057 C 
HETATM    7 CL7  UNL     1     -34.303   6.848   6.356  1.00 20.00    -0.095 Cl
ENDBRANCH   1   5
TORSDOF 2
