REMARK  2 active torsions:
REMARK  status: ('A' for Active; 'I' for Inactive)
REMARK    1  A    between atoms: C1_1  and  S11_11 
REMARK    2  A    between atoms: C8_8  and  S11_11 
ROOT
HETATM    1  C2  UNL     1     -35.176   5.410   5.418  1.00 20.00     0.005 C 
HETATM    2  C3  UNL     1     -35.313   5.175   3.906  1.00 20.00     0.006 C 
HETATM    3  C4  UNL     1     -33.036   4.893   4.512  1.00 20.00     0.010 C 
HETATM    4  C5  UNL     1     -33.448   7.185   5.012  1.00 20.00     0.020 C 
HETATM    5  C6  UNL     1     -33.689   5.771   5.578  1.00 20.00    -0.013 C 
HETATM    6  C7  UNL     1     -33.894   5.467   3.380  1.00 20.00     0.000 C 
HETATM    7  C8  UNL     1     -33.647   6.988   3.496  1.00 20.00     0.059 C 
ENDROOT
BRANCH   7   8
HETATM    8  S11 UNL     1     -32.189   7.518   2.541  1.00 20.00    -0.088 SA
BRANCH   8   9
HETATM    9  C1  UNL     1     -32.911   7.672   0.942  1.00 20.00     0.182 C 
HETATM   10  C9  UNL     1     -33.460   9.043   0.669  1.00 20.00     0.104 C 
HETATM   11  O10 UNL     1     -32.963   6.757   0.128  1.00 20.00    -0.286 OA
ENDBRANCH   8   9
ENDBRANCH   7   8
TORSDOF 2
