REMARK  2 active torsions:
REMARK  status: ('A' for Active; 'I' for Inactive)
REMARK    1  A    between atoms: C1_1  and  S11_11 
REMARK    2  A    between atoms: C8_8  and  S11_11 
ROOT
HETATM    1  C2  UNL     1     -34.190   5.612   5.680  1.00 20.00     0.005 C 
HETATM    2  C3  UNL     1     -34.173   6.933   4.899  1.00 20.00     0.006 C 
HETATM    3  C4  UNL     1     -35.866   5.555   3.989  1.00 20.00     0.010 C 
HETATM    4  C5  UNL     1     -33.871   4.306   3.568  1.00 20.00     0.020 C 
HETATM    5  C6  UNL     1     -34.866   4.640   4.698  1.00 20.00    -0.013 C 
HETATM    6  C7  UNL     1     -34.781   6.542   3.539  1.00 20.00     0.000 C 
HETATM    7  C8  UNL     1     -33.864   5.598   2.727  1.00 20.00     0.059 C 
ENDROOT
BRANCH   7   8
HETATM    8  S11 UNL     1     -32.195   6.225   2.392  1.00 20.00    -0.088 SA
BRANCH   8   9
HETATM    9  C1  UNL     1     -32.565   7.900   1.991  1.00 20.00     0.182 C 
HETATM   10  C9  UNL     1     -32.826   8.121   0.527  1.00 20.00     0.104 C 
HETATM   11  O10 UNL     1     -32.608   8.801   2.820  1.00 20.00    -0.286 OA
ENDBRANCH   8   9
ENDBRANCH   7   8
TORSDOF 2
