REMARK  1 active torsions:
REMARK  status: ('A' for Active; 'I' for Inactive)
REMARK    1  A    between atoms: C3_3  and  C7_7 
ROOT
HETATM    1  C1  UNL     1     -33.246   4.335   2.772  1.00 20.00    -0.020 C 
HETATM    2  C2  UNL     1     -33.396   5.559   2.236  1.00 20.00    -0.086 C 
HETATM    3  C4  UNL     1     -34.431   6.538   2.736  1.00 20.00     0.045 C 
HETATM    4  C5  UNL     1     -35.362   4.639   4.135  1.00 20.00     0.020 C 
HETATM    5  C6  UNL     1     -34.096   3.797   3.894  1.00 20.00     0.005 C 
HETATM    6  C7  UNL     1     -35.093   6.142   4.061  1.00 20.00     0.051 C 
HETATM    7  C8  UNL     1     -32.536   6.035   1.102  1.00 20.00     0.043 C 
HETATM    8  C9  UNL     1     -34.481   2.340   3.631  1.00 20.00     0.014 C 
ENDROOT
BRANCH   6   9
HETATM    9  C3  UNL     1     -34.263   6.581   5.233  1.00 20.00     0.236 C 
HETATM   10  O10 UNL     1     -33.180   7.144   5.121  1.00 20.00    -0.306 OA
ENDBRANCH   6   9
TORSDOF 1
