REMARK  3 active torsions:
REMARK  status: ('A' for Active; 'I' for Inactive)
REMARK    1  A    between atoms: C3_3  and  C8_8 
REMARK    2  A    between atoms: C4_4  and  C10_10 
REMARK    3  A    between atoms: C10_10  and  O11_11 
ROOT
HETATM    1  C1  UNL     1     -34.289   5.210   6.160  1.00 20.00    -0.031 C 
HETATM    2  C2  UNL     1     -33.693   6.402   6.309  1.00 20.00    -0.030 C 
HETATM    3  C5  UNL     1     -34.575   4.599   4.820  1.00 20.00     0.027 C 
HETATM    4  C6  UNL     1     -33.218   7.233   5.154  1.00 20.00     0.035 C 
HETATM    5  C7  UNL     1     -34.432   5.593   3.665  1.00 20.00     0.012 C 
HETATM    6  C8  UNL     1     -33.186   6.455   3.837  1.00 20.00     0.011 C 
ENDROOT
BRANCH   6   7
HETATM    7  C3  UNL     1     -33.155   7.460   2.701  1.00 20.00    -0.023 C 
HETATM    8  C4  UNL     1     -33.113   7.119   1.405  1.00 20.00     0.000 C 
BRANCH   8   9
HETATM    9  C10 UNL     1     -33.083   8.116   0.284  1.00 20.00     0.136 C 
HETATM   10  C9  UNL     1     -33.046   9.543   0.814  1.00 20.00     0.043 C 
BRANCH   9  11
HETATM   11  O11 UNL     1     -31.910   7.874  -0.489  1.00 20.00    -0.392 OA
HETATM   12  H27 UNL     1     -31.911   8.528  -1.205  1.00 20.00     0.210 HD
ENDBRANCH   9  11
ENDBRANCH   8   9
ENDBRANCH   6   7
TORSDOF 3
