REMARK  2 active torsions:
REMARK  status: ('A' for Active; 'I' for Inactive)
REMARK    1  A    between atoms: C1_1  and  S6_6 
REMARK    2  A    between atoms: N4_4  and  O5_5 
ROOT
HETATM    1  C1  UNL     1     -34.054   6.174   5.150  1.00 20.00     0.093 C 
HETATM    2  C2  UNL     1     -33.217   6.965   6.124  1.00 20.00     0.081 C 
HETATM    3  N4  UNL     1     -35.012   5.369   5.484  1.00 20.00    -0.134 NA
ENDROOT
BRANCH   1   4
HETATM    4  S6  UNL     1     -33.643   6.426   3.455  1.00 20.00    -0.117 SA
HETATM    5  C3  UNL     1     -33.185   4.759   2.934  1.00 20.00     0.097 C 
ENDBRANCH   1   4
BRANCH   3   6
HETATM    6  O5  UNL     1     -35.594   4.788   4.355  1.00 20.00    -0.266 OA
HETATM    7  H13 UNL     1     -36.278   4.225   4.756  1.00 20.00     0.247 HD
ENDBRANCH   3   6
TORSDOF 2
