REMARK  0 active torsions:
REMARK  status: ('A' for Active; 'I' for Inactive)
ROOT
HETATM    1  C1  UNL     1     -33.219   5.666   2.354  1.00 20.00     0.000 C 
HETATM    2  C2  UNL     1     -33.738   4.330   2.889  1.00 20.00     0.003 C 
HETATM    3  C3  UNL     1     -32.703   6.563   3.482  1.00 20.00     0.003 C 
HETATM    4  C4  UNL     1     -34.808   4.534   3.962  1.00 20.00     0.040 C 
HETATM    5  C5  UNL     1     -33.768   6.777   4.558  1.00 20.00     0.040 C 
HETATM    6  C6  UNL     1     -33.875   4.903   6.373  1.00 20.00     0.207 A 
HETATM    7  C7  UNL     1     -34.294   5.454   5.030  1.00 20.00     0.082 A 
HETATM    8  O8  UNL     1     -35.145   5.543   6.181  1.00 20.00    -0.375 OA
ENDROOT
TORSDOF 0
