REMARK  2 active torsions:
REMARK  status: ('A' for Active; 'I' for Inactive)
REMARK    1  A    between atoms: C1_1  and  C10_10 
REMARK    2  A    between atoms: C8_8  and  C10_10 
ROOT
HETATM    1  C2  UNL     1     -33.963   4.869   5.765  1.00 20.00     0.005 C 
HETATM    2  C3  UNL     1     -33.690   6.373   5.610  1.00 20.00     0.005 C 
HETATM    3  C4  UNL     1     -35.470   5.774   4.160  1.00 20.00     0.009 C 
HETATM    4  C5  UNL     1     -33.635   4.526   3.302  1.00 20.00     0.010 C 
HETATM    5  C6  UNL     1     -34.666   4.507   4.446  1.00 20.00    -0.014 C 
HETATM    6  C7  UNL     1     -34.236   6.679   4.203  1.00 20.00    -0.010 C 
HETATM    7  C8  UNL     1     -33.294   6.025   3.164  1.00 20.00    -0.003 C 
ENDROOT
BRANCH   7   8
HETATM    8  C10 UNL     1     -33.524   6.543   1.749  1.00 20.00     0.082 C 
BRANCH   8   9
HETATM    9  C1  UNL     1     -32.802   7.849   1.487  1.00 20.00     0.123 C 
HETATM   10  C9  UNL     1     -32.960   8.421   0.102  1.00 20.00     0.091 C 
HETATM   11  O11 UNL     1     -32.124   8.424   2.337  1.00 20.00    -0.298 OA
ENDBRANCH   8   9
ENDBRANCH   7   8
TORSDOF 2
