REMARK  1 active torsions:
REMARK  status: ('A' for Active; 'I' for Inactive)
REMARK    1  A    between atoms: C3_3  and  C6_6 
ROOT
HETATM    1  C1  UNL     1     -34.316   6.204   5.790  1.00 20.00    -0.030 C 
HETATM    2  C2  UNL     1     -34.957   5.053   5.553  1.00 20.00    -0.030 C 
HETATM    3  C4  UNL     1     -33.477   6.902   4.764  1.00 20.00     0.038 C 
HETATM    4  C5  UNL     1     -34.881   4.328   4.244  1.00 20.00     0.031 C 
HETATM    5  C6  UNL     1     -33.659   6.353   3.339  1.00 20.00     0.054 C 
HETATM    6  C7  UNL     1     -33.735   4.814   3.334  1.00 20.00    -0.004 C 
HETATM    7  C8  UNL     1     -33.925   4.246   1.924  1.00 20.00     0.011 C 
ENDROOT
BRANCH   5   8
HETATM    8  C3  UNL     1     -32.512   6.846   2.507  1.00 20.00     0.236 C 
HETATM    9  O9  UNL     1     -32.649   7.579   1.534  1.00 20.00    -0.306 OA
ENDBRANCH   5   8
TORSDOF 1
