REMARK  1 active torsions:
REMARK  status: ('A' for Active; 'I' for Inactive)
REMARK    1  A    between atoms: C1_1  and  C3_3 
ROOT
HETATM    1  C1  UNL     1     -34.765   4.705   5.475  1.00 20.00     0.037 C 
HETATM    2  C2  UNL     1     -34.242   5.643   6.274  1.00 20.00    -0.028 C 
HETATM    3  C4  UNL     1     -33.768   6.970   5.781  1.00 20.00     0.036 C 
ENDROOT
BRANCH   1   4
HETATM    4  C3  UNL     1     -34.886   4.978   4.030  1.00 20.00     0.258 C 
HETATM    5  O5  UNL     1     -33.910   5.226   3.333  1.00 20.00    -0.302 OA
ENDBRANCH   1   4
TORSDOF 1
