REMARK  1 active torsions:
REMARK  status: ('A' for Active; 'I' for Inactive)
REMARK    1  A    between atoms: C2_2  and  C3_3 
ROOT
HETATM    1  C1  UNL     1     -33.592   6.396   3.573  1.00 20.00    -0.061 C 
HETATM    2  C2  UNL     1     -32.700   7.327   3.217  1.00 20.00     0.088 C 
HETATM    3  C4  UNL     1     -34.000   4.176   2.574  1.00 20.00     0.009 C 
HETATM    4  C5  UNL     1     -34.437   3.628   3.945  1.00 20.00     0.006 C 
HETATM    5  C6  UNL     1     -35.759   5.516   3.455  1.00 20.00     0.014 C 
HETATM    6  C7  UNL     1     -34.488   5.634   2.615  1.00 20.00     0.016 C 
HETATM    7  C8  UNL     1     -35.029   4.872   4.645  1.00 20.00    -0.002 C 
HETATM    8  C9  UNL     1     -33.934   5.937   4.987  1.00 20.00    -0.020 C 
HETATM    9  C10 UNL     1     -34.523   7.078   5.836  1.00 20.00     0.020 C 
HETATM   10  C11 UNL     1     -32.724   5.350   5.729  1.00 20.00     0.020 C 
ENDROOT
BRANCH   2  11
HETATM   11  C3  UNL     1     -32.490   7.728   1.751  1.00 20.00     0.198 C 
HETATM   12  O12 UNL     1     -33.526   7.613   1.033  1.00 20.00    -0.644 OA
HETATM   13  O13 UNL     1     -31.334   8.119   1.423  1.00 20.00    -0.644 OA
ENDBRANCH   2  11
TORSDOF 1
