REMARK  1 active torsions:
REMARK  status: ('A' for Active; 'I' for Inactive)
REMARK    1  A    between atoms: C8_8  and  C9_9 
ROOT
HETATM    1  C1  UNL     1     -32.704   7.829   2.346  1.00 20.00     0.059 C 
HETATM    2  C9  UNL     1     -32.645   7.132   3.626  1.00 20.00     0.129 C 
HETATM    3  N10 UNL     1     -32.724   8.390   1.330  1.00 20.00    -0.197 NA
ENDROOT
BRANCH   2   4
HETATM    4  C8  UNL     1     -34.054   6.602   3.835  1.00 20.00     0.003 C 
HETATM    5  C5  UNL     1     -34.348   5.307   3.050  1.00 20.00     0.010 C 
HETATM    6  C6  UNL     1     -34.914   4.369   4.134  1.00 20.00    -0.014 C 
HETATM    7  C2  UNL     1     -33.758   3.909   5.039  1.00 20.00     0.005 C 
HETATM    8  C4  UNL     1     -35.659   5.343   5.047  1.00 20.00     0.009 C 
HETATM    9  C3  UNL     1     -33.439   5.168   5.857  1.00 20.00     0.005 C 
HETATM   10  C7  UNL     1     -34.417   6.209   5.286  1.00 20.00    -0.009 C 
ENDBRANCH   2   4
TORSDOF 1
