REMARK  0 active torsions:
REMARK  status: ('A' for Active; 'I' for Inactive)
ROOT
HETATM    1  C1  UNL     1     -32.907   7.591   1.471  1.00 20.00     0.086 C 
HETATM    2  C2  UNL     1     -34.003   5.176   4.885  1.00 20.00     0.005 C 
HETATM    3  C3  UNL     1     -34.084   6.701   5.040  1.00 20.00     0.008 C 
HETATM    4  C4  UNL     1     -35.099   6.112   2.991  1.00 20.00     0.012 C 
HETATM    5  C5  UNL     1     -32.833   5.406   2.678  1.00 20.00     0.046 C 
HETATM    6  C6  UNL     1     -34.148   4.977   3.366  1.00 20.00    -0.011 C 
HETATM    7  C7  UNL     1     -34.183   7.196   3.582  1.00 20.00     0.024 C 
HETATM    8  C8  UNL     1     -32.867   6.947   2.795  1.00 20.00     0.129 C 
HETATM    9  N9  UNL     1     -32.939   8.099   0.428  1.00 20.00    -0.195 NA
HETATM   10 CL10 UNL     1     -31.418   7.589   3.609  1.00 20.00    -0.102 Cl
ENDROOT
TORSDOF 0
