REMARK  1 active torsions:
REMARK  status: ('A' for Active; 'I' for Inactive)
REMARK    1  A    between atoms: C2_2  and  C3_3 
ROOT
HETATM    1  C3  UNL     1     -33.272   6.708   3.155  1.00 20.00     0.216 C 
HETATM    2 CL5  UNL     1     -31.844   7.582   3.812  1.00 20.00    -0.081 Cl
HETATM    3 CL6  UNL     1     -32.707   5.133   2.495  1.00 20.00    -0.081 Cl
HETATM    4 CL7  UNL     1     -33.941   7.675   1.795  1.00 20.00    -0.081 Cl
ENDROOT
BRANCH   1   5
HETATM    5  C2  UNL     1     -34.296   6.501   4.212  1.00 20.00     0.199 A 
HETATM    6  C1  UNL     1     -35.173   5.280   4.218  1.00 20.00     0.204 A 
HETATM    7  O4  UNL     1     -34.035   5.398   5.086  1.00 20.00    -0.377 OA
ENDBRANCH   1   5
TORSDOF 1
