REMARK  1 active torsions:
REMARK  status: ('A' for Active; 'I' for Inactive)
REMARK    1  A    between atoms: C8_8  and  C9_9 
ROOT
HETATM    1  C1  UNL     1     -32.310   7.846   1.191  1.00 20.00     0.059 C 
HETATM    2  C9  UNL     1     -32.022   7.206   2.468  1.00 20.00     0.129 C 
HETATM    3  N10 UNL     1     -32.509   8.363   0.171  1.00 20.00    -0.197 NA
ENDROOT
BRANCH   2   4
HETATM    4  C8  UNL     1     -33.377   6.700   2.950  1.00 20.00     0.003 C 
HETATM    5  C5  UNL     1     -33.762   5.352   2.304  1.00 20.00     0.010 C 
HETATM    6  C6  UNL     1     -34.018   4.444   3.520  1.00 20.00    -0.014 C 
HETATM    7  C2  UNL     1     -35.296   4.910   4.239  1.00 20.00     0.005 C 
HETATM    8  C4  UNL     1     -32.929   4.904   4.486  1.00 20.00     0.009 C 
HETATM    9  C3  UNL     1     -34.856   6.220   4.910  1.00 20.00     0.005 C 
HETATM   10  C7  UNL     1     -33.390   6.363   4.460  1.00 20.00    -0.009 C 
ENDBRANCH   2   4
TORSDOF 1
