REMARK  0 active torsions:
REMARK  status: ('A' for Active; 'I' for Inactive)
ROOT
HETATM    1  C1  UNL     1     -34.582   6.307   5.989  1.00 20.00     0.018 C 
HETATM    2  C2  UNL     1     -32.889   4.462   3.295  1.00 20.00     0.018 C 
HETATM    3  C3  UNL     1     -33.262   6.881   5.465  1.00 20.00     0.022 C 
HETATM    4  C4  UNL     1     -32.890   3.850   4.698  1.00 20.00     0.022 C 
HETATM    5  C5  UNL     1     -35.133   5.067   5.269  1.00 20.00     0.066 C 
HETATM    6  C6  UNL     1     -33.650   5.785   3.120  1.00 20.00     0.066 C 
HETATM    7  C7  UNL     1     -33.169   6.996   3.939  1.00 20.00     0.096 C 
HETATM    8  C8  UNL     1     -34.251   3.810   5.406  1.00 20.00     0.096 C 
HETATM    9  S9  UNL     1     -35.399   5.495   3.520  1.00 20.00    -0.156 SA
HETATM   10 CL10 UNL     1     -31.485   7.428   3.488  1.00 20.00    -0.124 Cl
HETATM   11 CL11 UNL     1     -35.166   2.362   4.829  1.00 20.00    -0.124 Cl
ENDROOT
TORSDOF 0
