REMARK  1 active torsions:
REMARK  status: ('A' for Active; 'I' for Inactive)
REMARK    1  A    between atoms: C8_8  and  O10_10 
ROOT
HETATM    1  C1  UNL     1     -34.903   4.839   3.568  1.00 20.00     0.005 C 
HETATM    2  C2  UNL     1     -32.741   5.651   2.600  1.00 20.00     0.005 C 
HETATM    3  C3  UNL     1     -35.404   6.288   3.634  1.00 20.00     0.008 C 
HETATM    4  C4  UNL     1     -33.256   7.094   2.686  1.00 20.00     0.008 C 
HETATM    5  C5  UNL     1     -32.983   5.385   5.079  1.00 20.00     0.042 C 
HETATM    6  C6  UNL     1     -33.372   4.793   3.710  1.00 20.00    -0.012 C 
HETATM    7  C7  UNL     1     -34.220   7.241   3.884  1.00 20.00     0.019 C 
HETATM    8  C8  UNL     1     -33.475   6.847   5.189  1.00 20.00     0.058 C 
HETATM    9  C9  UNL     1     -34.329   7.049   6.444  1.00 20.00     0.046 C 
ENDROOT
BRANCH   8  10
HETATM   10  O10 UNL     1     -32.325   7.689   5.340  1.00 20.00    -0.390 OA
HETATM   11  H26 UNL     1     -31.882   7.396   6.149  1.00 20.00     0.210 HD
ENDBRANCH   8  10
TORSDOF 1
