REMARK  0 active torsions:
REMARK  status: ('A' for Active; 'I' for Inactive)
ROOT
HETATM    1  C1  UNL     1     -33.035   6.868   4.190  1.00 20.00     0.127 C 
HETATM    2  C2  UNL     1     -33.950   7.207   5.352  1.00 20.00     0.082 C 
HETATM    3  C3  UNL     1     -33.521   5.838   3.187  1.00 20.00     0.082 C 
HETATM    4  C4  UNL     1     -33.896   4.828   6.231  1.00 20.00     0.005 C 
HETATM    5  C5  UNL     1     -33.641   4.019   4.952  1.00 20.00     0.005 C 
HETATM    6  C6  UNL     1     -35.542   5.427   4.604  1.00 20.00     0.010 C 
HETATM    7  C7  UNL     1     -34.787   6.002   5.799  1.00 20.00    -0.007 C 
HETATM    8  C8  UNL     1     -34.398   4.764   3.842  1.00 20.00    -0.007 C 
HETATM    9  O9  UNL     1     -31.984   7.484   4.008  1.00 20.00    -0.298 OA
ENDROOT
TORSDOF 0
