REMARK  1 active torsions:
REMARK  status: ('A' for Active; 'I' for Inactive)
REMARK    1  A    between atoms: C1_1  and  C3_3 
ROOT
HETATM    1  C1  UNL     1     -34.924   5.117   4.037  1.00 20.00     0.181 A 
HETATM    2  C2  UNL     1     -34.311   3.779   4.336  1.00 20.00     0.247 A 
HETATM    3  O4  UNL     1     -33.910   4.551   3.197  1.00 20.00    -0.358 OA
HETATM    4 CL5  UNL     1     -35.236   2.325   4.086  1.00 20.00    -0.092 Cl
ENDROOT
BRANCH   1   5
HETATM    5  C3  UNL     1     -34.501   6.335   4.776  1.00 20.00     0.150 C 
HETATM    6 CL6  UNL     1     -32.965   6.985   4.134  1.00 20.00    -0.128 Cl
ENDBRANCH   1   5
TORSDOF 1
