REMARK  2 active torsions:
REMARK  status: ('A' for Active; 'I' for Inactive)
REMARK    1  A    between atoms: C4_4  and  C7_7 
REMARK    2  A    between atoms: C8_8  and  O11_11 
ROOT
HETATM    1  C1  UNL     1     -32.709   5.180   2.840  1.00 20.00    -0.019 C 
HETATM    2  C2  UNL     1     -33.754   4.615   3.463  1.00 20.00     0.007 C 
HETATM    3  C5  UNL     1     -32.822   7.137   4.423  1.00 20.00     0.016 C 
HETATM    4  C6  UNL     1     -34.321   6.841   4.536  1.00 20.00     0.042 C 
HETATM    5  C7  UNL     1     -32.228   6.580   3.115  1.00 20.00     0.036 C 
HETATM    6  C8  UNL     1     -34.600   5.325   4.488  1.00 20.00     0.072 C 
HETATM    7  C10 UNL     1     -36.087   5.072   4.228  1.00 20.00     0.050 C 
ENDROOT
BRANCH   5   8
HETATM    8  C4  UNL     1     -32.516   7.479   1.947  1.00 20.00    -0.085 C 
HETATM    9  C3  UNL     1     -33.254   8.592   2.073  1.00 20.00     0.014 C 
HETATM   10  C9  UNL     1     -31.930   7.061   0.631  1.00 20.00     0.043 C 
ENDBRANCH   5   8
BRANCH   6  11
HETATM   11  O11 UNL     1     -34.272   4.753   5.758  1.00 20.00    -0.386 OA
HETATM   12  H27 UNL     1     -34.487   3.811   5.693  1.00 20.00     0.211 HD
ENDBRANCH   6  11
TORSDOF 2
