REMARK  0 active torsions:
REMARK  status: ('A' for Active; 'I' for Inactive)
ROOT
HETATM    1  C1  UNL     1     -32.844   7.045   2.264  1.00 20.00     0.064 C 
HETATM    2  C2  UNL     1     -33.826   4.845   2.812  1.00 20.00     0.022 C 
HETATM    3  C3  UNL     1     -34.047   3.811   3.917  1.00 20.00     0.036 C 
HETATM    4  C4  UNL     1     -34.140   6.818   4.353  1.00 20.00     0.053 C 
HETATM    5  C5  UNL     1     -33.188   6.127   3.364  1.00 20.00     0.095 C 
HETATM    6  C6  UNL     1     -34.716   4.395   5.120  1.00 20.00     0.151 A 
HETATM    7  C7  UNL     1     -34.731   5.881   5.358  1.00 20.00     0.152 A 
HETATM    8  N8  UNL     1     -32.573   7.768   1.398  1.00 20.00    -0.197 NA
HETATM    9  O9  UNL     1     -33.801   5.032   6.033  1.00 20.00    -0.375 OA
ENDROOT
TORSDOF 0
