REMARK  1 active torsions:
REMARK  status: ('A' for Active; 'I' for Inactive)
REMARK    1  A    between atoms: N5_5  and  N6_6 
ROOT
HETATM    1  C1  UNL     1     -33.754   6.376   5.171  1.00 20.00     0.101 C 
HETATM    2  C2  UNL     1     -34.706   6.620   6.299  1.00 20.00     0.058 C 
HETATM    3  N5  UNL     1     -33.926   6.956   4.029  1.00 20.00    -0.217 NA
ENDROOT
BRANCH   3   4
HETATM    4  N6  UNL     1     -32.974   6.616   3.122  1.00 20.00    -0.217 NA
HETATM    5  C3  UNL     1     -32.692   7.672   2.146  1.00 20.00     0.138 C 
HETATM    6  C4  UNL     1     -33.221   5.359   2.403  1.00 20.00     0.138 C 
ENDBRANCH   3   4
TORSDOF 1
