REMARK  0 active torsions:
REMARK  status: ('A' for Active; 'I' for Inactive)
ROOT
HETATM    1  C1  UNL     1     -33.664   6.034   3.849  1.00 20.00     0.223 C 
HETATM    2  C2  UNL     1     -34.155   6.051   5.057  1.00 20.00    -0.033 C 
HETATM    3  C3  UNL     1     -34.140   7.287   5.911  1.00 20.00     0.047 C 
HETATM    4  C4  UNL     1     -34.774   4.838   5.688  1.00 20.00     0.047 C 
HETATM    5  O5  UNL     1     -33.221   6.018   2.759  1.00 20.00    -0.284 OA
ENDROOT
TORSDOF 0
