REMARK  2 active torsions:
REMARK  status: ('A' for Active; 'I' for Inactive)
REMARK    1  A    between atoms: C2_2  and  C5_5 
REMARK    2  A    between atoms: C3_3  and  C5_5 
ROOT
HETATM    1  C5  UNL     1     -32.462   7.105   3.049  1.00 20.00     0.123 C 
ENDROOT
BRANCH   1   2
HETATM    2  C2  UNL     1     -32.935   7.491   1.681  1.00 20.00    -0.022 C 
HETATM    3  C1  UNL     1     -33.085   8.761   1.275  1.00 20.00    -0.034 C 
HETATM    4  C4  UNL     1     -33.561   9.146  -0.086  1.00 20.00     0.036 C 
ENDBRANCH   1   2
BRANCH   1   5
HETATM    5  C3  UNL     1     -33.514   6.283   3.776  1.00 20.00     0.222 C 
HETATM    6  O6  UNL     1     -33.908   5.189   3.383  1.00 20.00    -0.280 OA
HETATM    7 CL7  UNL     1     -34.049   7.082   5.230  1.00 20.00    -0.043 Cl
ENDBRANCH   1   5
TORSDOF 2
