REMARK  0 active torsions:
REMARK  status: ('A' for Active; 'I' for Inactive)
ROOT
HETATM    1  C1  UNL     1     -34.655   6.569   5.440  1.00 20.00     0.029 C 
HETATM    2  C2  UNL     1     -33.281   7.002   4.932  1.00 20.00     0.044 C 
HETATM    3  C3  UNL     1     -34.896   5.091   5.139  1.00 20.00     0.167 C 
HETATM    4  C4  UNL     1     -33.460   5.122   3.246  1.00 20.00     0.207 C 
HETATM    5  C5  UNL     1     -33.110   7.562   2.387  1.00 20.00     0.209 A 
HETATM    6  C6  UNL     1     -33.120   6.554   3.512  1.00 20.00     0.103 A 
HETATM    7  O7  UNL     1     -34.775   4.837   3.737  1.00 20.00    -0.388 OA
HETATM    8  O8  UNL     1     -31.899   6.988   2.899  1.00 20.00    -0.373 OA
ENDROOT
TORSDOF 0
