REMARK  3 active torsions:
REMARK  status: ('A' for Active; 'I' for Inactive)
REMARK    1  A    between atoms: C2_2  and  O8_8 
REMARK    2  A    between atoms: C4_4  and  C6_6 
REMARK    3  A    between atoms: C6_6  and  O8_8 
ROOT
HETATM    1  C6  UNL     1     -33.466   5.468   2.797  1.00 20.00     0.208 C 
ENDROOT
BRANCH   1   2
HETATM    2  C4  UNL     1     -34.030   5.764   4.170  1.00 20.00     0.169 A 
HETATM    3  C3  UNL     1     -34.804   4.725   4.933  1.00 20.00     0.202 A 
HETATM    4  O7  UNL     1     -35.460   5.793   4.231  1.00 20.00    -0.379 OA
ENDBRANCH   1   2
BRANCH   1   5
HETATM    5  O8  UNL     1     -32.443   6.398   2.510  1.00 20.00    -0.361 OA
BRANCH   5   6
HETATM    6  C2  UNL     1     -32.921   7.603   2.075  1.00 20.00     0.130 C 
HETATM    7  C1  UNL     1     -32.618   8.117   0.879  1.00 20.00    -0.007 C 
HETATM    8  C5  UNL     1     -33.130   9.430   0.390  1.00 20.00     0.038 C 
ENDBRANCH   5   6
ENDBRANCH   1   5
TORSDOF 3
