REMARK  0 active torsions:
REMARK  status: ('A' for Active; 'I' for Inactive)
ROOT
HETATM    1  C1  UNL     1     -33.787   6.266   6.242  1.00 20.00    -0.025 A 
HETATM    2  C2  UNL     1     -33.638   7.157   5.248  1.00 20.00     0.003 A 
HETATM    3  C3  UNL     1     -34.470   5.026   5.715  1.00 20.00     0.061 A 
HETATM    4  C4  UNL     1     -34.151   6.675   3.957  1.00 20.00     0.173 A 
HETATM    5  C5  UNL     1     -34.785   5.334   4.270  1.00 20.00     0.158 A 
HETATM    6  O6  UNL     1     -33.691   5.450   3.362  1.00 20.00    -0.371 OA
ENDROOT
TORSDOF 0
