REMARK  2 active torsions:
REMARK  status: ('A' for Active; 'I' for Inactive)
REMARK    1  A    between atoms: C1_1  and  C2_2 
REMARK    2  A    between atoms: C2_2  and  C3_3 
ROOT
HETATM    1  C2  UNL     1     -34.541   5.489   4.152  1.00 20.00     0.428 C 
HETATM    2  F6  UNL     1     -35.852   5.689   3.858  1.00 20.00    -0.184 F 
HETATM    3  F7  UNL     1     -34.405   4.169   4.441  1.00 20.00    -0.184 F 
ENDROOT
BRANCH   1   4
HETATM    4  C1  UNL     1     -34.125   6.340   5.312  1.00 20.00     0.379 C 
HETATM    5  O4  UNL     1     -33.241   7.183   5.285  1.00 20.00    -0.253 OA
HETATM    6  F5  UNL     1     -34.798   6.192   6.462  1.00 20.00    -0.157 F 
ENDBRANCH   1   4
BRANCH   1   7
HETATM    7  C3  UNL     1     -33.717   5.811   2.932  1.00 20.00     0.465 C 
HETATM    8  F8  UNL     1     -32.406   5.589   3.171  1.00 20.00    -0.165 F 
HETATM    9  F9  UNL     1     -33.854   7.105   2.573  1.00 20.00    -0.165 F 
HETATM   10  F10 UNL     1     -34.077   5.046   1.880  1.00 20.00    -0.165 F 
ENDBRANCH   1   7
TORSDOF 2
