REMARK  1 active torsions:
REMARK  status: ('A' for Active; 'I' for Inactive)
REMARK    1  A    between atoms: C1_1  and  S5_5 
ROOT
HETATM    1  C1  UNL     1     -35.522   4.913   5.132  1.00 20.00     0.041 C 
HETATM    2  C2  UNL     1     -34.522   4.479   4.091  1.00 20.00     0.069 C 
HETATM    3  S4  UNL     1     -37.156   4.588   4.959  1.00 20.00    -0.078 SA
ENDROOT
BRANCH   1   4
HETATM    4  S5  UNL     1     -34.879   5.792   6.514  1.00 20.00    -0.128 SA
HETATM    5  C3  UNL     1     -34.149   7.212   5.668  1.00 20.00     0.096 C 
ENDBRANCH   1   4
TORSDOF 1
