REMARK  1 active torsions:
REMARK  status: ('A' for Active; 'I' for Inactive)
REMARK    1  A    between atoms: C9_9  and  O11_11 
ROOT
HETATM    1  C1  UNL     1     -32.430   7.560   2.466  1.00 20.00    -0.025 C 
HETATM    2  C2  UNL     1     -33.619   7.394   1.856  1.00 20.00    -0.025 C 
HETATM    3  C3  UNL     1     -33.341   6.592   5.822  1.00 20.00    -0.022 C 
HETATM    4  C4  UNL     1     -34.631   6.297   6.106  1.00 20.00     0.001 C 
HETATM    5  C5  UNL     1     -32.874   5.309   2.309  1.00 20.00     0.018 C 
HETATM    6  C6  UNL     1     -32.141   6.307   3.261  1.00 20.00     0.017 C 
HETATM    7  C7  UNL     1     -34.207   6.072   2.348  1.00 20.00     0.016 C 
HETATM    8  C8  UNL     1     -33.069   6.067   4.463  1.00 20.00     0.023 C 
HETATM    9  C9  UNL     1     -35.384   5.769   4.880  1.00 20.00     0.146 C 
HETATM   10  C10 UNL     1     -34.462   6.366   3.840  1.00 20.00     0.034 C 
ENDROOT
BRANCH   9  11
HETATM   11  O11 UNL     1     -35.419   4.359   4.872  1.00 20.00    -0.391 OA
HETATM   12  H23 UNL     1     -35.875   4.074   5.685  1.00 20.00     0.210 HD
ENDBRANCH   9  11
TORSDOF 1
