REMARK  1 active torsions:
REMARK  status: ('A' for Active; 'I' for Inactive)
REMARK    1  A    between atoms: C2_2  and  C3_3 
ROOT
HETATM    1  C1  UNL     1     -33.552   6.695   4.494  1.00 20.00    -0.012 C 
HETATM    2  C2  UNL     1     -33.696   5.736   3.570  1.00 20.00    -0.001 C 
HETATM    3  C4  UNL     1     -33.973   6.456   5.913  1.00 20.00     0.054 C 
HETATM    4  C5  UNL     1     -34.304   4.403   3.881  1.00 20.00     0.209 C 
HETATM    5  C6  UNL     1     -34.208   4.971   6.182  1.00 20.00     0.171 C 
HETATM    6  O8  UNL     1     -35.000   4.408   5.135  1.00 20.00    -0.386 OA
ENDROOT
BRANCH   2   7
HETATM    7  C3  UNL     1     -33.261   6.017   2.201  1.00 20.00     0.267 C 
HETATM    8  O7  UNL     1     -32.774   7.093   1.870  1.00 20.00    -0.302 OA
ENDBRANCH   2   7
TORSDOF 1
