REMARK  1 active torsions:
REMARK  status: ('A' for Active; 'I' for Inactive)
REMARK    1  A    between atoms: C1_1  and  C3_3 
ROOT
HETATM    1  C1  UNL     1     -34.012   6.803   4.518  1.00 20.00     0.181 A 
HETATM    2  C2  UNL     1     -34.314   6.367   5.925  1.00 20.00     0.247 A 
HETATM    3  O4  UNL     1     -33.085   7.023   5.588  1.00 20.00    -0.358 OA
HETATM    4 CL5  UNL     1     -34.281   4.694   6.400  1.00 20.00    -0.092 Cl
ENDROOT
BRANCH   1   5
HETATM    5  C3  UNL     1     -33.518   5.880   3.461  1.00 20.00     0.150 C 
HETATM    6 CL6  UNL     1     -32.743   6.779   2.125  1.00 20.00    -0.128 Cl
ENDBRANCH   1   5
TORSDOF 1
