REMARK  2 active torsions:
REMARK  status: ('A' for Active; 'I' for Inactive)
REMARK    1  A    between atoms: C2_2  and  C6_6 
REMARK    2  A    between atoms: C6_6  and  O7_7 
ROOT
HETATM    1  C4  UNL     1     -36.047   5.572   3.821  1.00 20.00     0.050 C 
HETATM    2  C5  UNL     1     -34.183   3.942   4.270  1.00 20.00     0.050 C 
HETATM    3  C6  UNL     1     -34.898   5.203   4.763  1.00 20.00     0.068 C 
ENDROOT
BRANCH   3   4
HETATM    4  C2  UNL     1     -33.915   6.350   4.847  1.00 20.00     0.005 C 
HETATM    5  C1  UNL     1     -33.225   6.885   3.827  1.00 20.00    -0.032 C 
HETATM    6  C3  UNL     1     -32.266   8.020   3.981  1.00 20.00     0.036 C 
ENDBRANCH   3   4
BRANCH   3   7
HETATM    7  O7  UNL     1     -35.456   4.920   6.048  1.00 20.00    -0.387 OA
HETATM    8  H19 UNL     1     -36.071   4.182   5.922  1.00 20.00     0.211 HD
ENDBRANCH   3   7
TORSDOF 2
