REMARK  0 active torsions:
REMARK  status: ('A' for Active; 'I' for Inactive)
ROOT
HETATM    1  C1  UNL     1     -33.229   5.677   3.266  1.00 20.00     0.374 C 
HETATM    2  C2  UNL     1     -32.908   7.174   3.246  1.00 20.00     0.398 C 
HETATM    3  C3  UNL     1     -34.188   6.052   4.399  1.00 20.00     0.398 C 
HETATM    4  O4  UNL     1     -34.061   7.460   4.077  1.00 20.00    -0.252 OA
HETATM    5  F5  UNL     1     -33.805   5.184   2.147  1.00 20.00    -0.231 F 
HETATM    6  F6  UNL     1     -32.968   7.783   2.043  1.00 20.00    -0.172 F 
HETATM    7  F7  UNL     1     -31.746   7.543   3.827  1.00 20.00    -0.172 F 
HETATM    8  F8  UNL     1     -33.771   5.768   5.653  1.00 20.00    -0.172 F 
HETATM    9  F9  UNL     1     -35.456   5.603   4.284  1.00 20.00    -0.172 F 
ENDROOT
TORSDOF 0
