REMARK  0 active torsions:
REMARK  status: ('A' for Active; 'I' for Inactive)
ROOT
HETATM    1  C1  UNL     1     -33.070   6.711   3.858  1.00 20.00     0.229 C 
HETATM    2  C2  UNL     1     -33.805   7.265   5.062  1.00 20.00     0.104 C 
HETATM    3  C3  UNL     1     -33.664   6.361   6.282  1.00 20.00     0.009 C 
HETATM    4  C4  UNL     1     -34.688   5.230   6.327  1.00 20.00     0.002 C 
HETATM    5  C5  UNL     1     -34.567   4.217   5.189  1.00 20.00     0.021 C 
HETATM    6  C6  UNL     1     -34.763   4.833   3.808  1.00 20.00     0.140 C 
HETATM    7  N7  UNL     1     -33.566   5.526   3.337  1.00 20.00    -0.284 N 
HETATM    8  O8  UNL     1     -32.090   7.312   3.411  1.00 20.00    -0.273 OA
HETATM    9 BR9  UNL     1     -32.626   4.711   1.891  1.00 20.00     0.052 Br
ENDROOT
TORSDOF 0
