REMARK  1 active torsions:
REMARK  status: ('A' for Active; 'I' for Inactive)
REMARK    1  A    between atoms: C1_1  and  C6_6 
ROOT
HETATM    1  C2  UNL     1     -33.205   4.358   3.038  1.00 20.00     0.002 C 
HETATM    2  C3  UNL     1     -34.589   4.703   3.580  1.00 20.00     0.012 C 
HETATM    3  C4  UNL     1     -32.728   5.384   2.014  1.00 20.00     0.009 C 
HETATM    4  C5  UNL     1     -34.095   7.178   3.177  1.00 20.00     0.021 C 
HETATM    5  C6  UNL     1     -34.687   6.128   4.124  1.00 20.00     0.055 C 
HETATM    6  C7  UNL     1     -32.719   6.829   2.557  1.00 20.00    -0.047 C 
HETATM    7  C9  UNL     1     -31.580   7.017   3.578  1.00 20.00     0.015 C 
HETATM    8  C10 UNL     1     -32.448   7.796   1.386  1.00 20.00     0.015 C 
ENDROOT
BRANCH   5   9
HETATM    9  C1  UNL     1     -34.104   6.238   5.502  1.00 20.00     0.127 C 
HETATM   10  C8  UNL     1     -34.668   5.319   6.551  1.00 20.00     0.091 C 
HETATM   11  O11 UNL     1     -33.207   7.039   5.760  1.00 20.00    -0.298 OA
ENDBRANCH   5   9
TORSDOF 1
