REMARK  0 active torsions:
REMARK  status: ('A' for Active; 'I' for Inactive)
ROOT
HETATM    1  C1  UNL     1     -33.608   6.898   4.341  1.00 20.00     0.066 C 
HETATM    2  C2  UNL     1     -35.291   5.029   4.583  1.00 20.00     0.066 C 
HETATM    3  C3  UNL     1     -33.394   6.796   5.849  1.00 20.00     0.170 C 
HETATM    4  C4  UNL     1     -34.973   5.042   6.076  1.00 20.00     0.170 C 
HETATM    5  C5  UNL     1     -33.241   4.685   2.994  1.00 20.00     0.207 A 
HETATM    6  C6  UNL     1     -34.119   5.584   3.831  1.00 20.00     0.086 A 
HETATM    7  O7  UNL     1     -34.594   6.358   6.497  1.00 20.00    -0.391 OA
HETATM    8  O8  UNL     1     -34.250   5.518   2.405  1.00 20.00    -0.375 OA
ENDROOT
TORSDOF 0
