REMARK  0 active torsions:
REMARK  status: ('A' for Active; 'I' for Inactive)
ROOT
HETATM    1  C1  UNL     1     -33.863   5.091   2.140  1.00 20.00     0.029 C 
HETATM    2  C2  UNL     1     -33.909   4.409   3.505  1.00 20.00     0.044 C 
HETATM    3  C3  UNL     1     -32.960   6.319   2.183  1.00 20.00     0.167 C 
HETATM    4  C4  UNL     1     -33.354   6.679   4.498  1.00 20.00     0.207 C 
HETATM    5  C5  UNL     1     -34.794   5.008   5.879  1.00 20.00     0.209 A 
HETATM    6  C6  UNL     1     -34.173   5.429   4.571  1.00 20.00     0.103 A 
HETATM    7  O7  UNL     1     -33.414   7.236   3.181  1.00 20.00    -0.388 OA
HETATM    8  O8  UNL     1     -35.563   5.649   4.848  1.00 20.00    -0.373 OA
ENDROOT
TORSDOF 0
