REMARK  3 active torsions:
REMARK  status: ('A' for Active; 'I' for Inactive)
REMARK    1  A    between atoms: C2_2  and  C6_6 
REMARK    2  A    between atoms: C6_6  and  C7_7 
REMARK    3  A    between atoms: C6_6  and  O8_8 
ROOT
HETATM    1  C6  UNL     1     -32.199   6.922   2.597  1.00 20.00     0.144 C 
ENDROOT
BRANCH   1   2
HETATM    2  C2  UNL     1     -32.907   7.912   1.715  1.00 20.00     0.000 C 
HETATM    3  C1  UNL     1     -32.609   8.103   0.421  1.00 20.00    -0.033 C 
HETATM    4  C3  UNL     1     -33.312   9.082  -0.459  1.00 20.00     0.036 C 
ENDBRANCH   1   2
BRANCH   1   5
HETATM    5  C7  UNL     1     -33.120   5.871   3.261  1.00 20.00     0.010 C 
HETATM    6  C4  UNL     1     -33.827   4.959   2.252  1.00 20.00     0.012 C 
HETATM    7  C5  UNL     1     -34.143   6.519   4.196  1.00 20.00     0.012 C 
ENDBRANCH   1   5
BRANCH   1   8
HETATM    8  O8  UNL     1     -31.520   7.665   3.611  1.00 20.00    -0.391 OA
HETATM    9  H22 UNL     1     -30.899   8.250   3.152  1.00 20.00     0.210 HD
ENDBRANCH   1   8
TORSDOF 3
