REMARK  2 active torsions:
REMARK  status: ('A' for Active; 'I' for Inactive)
REMARK    1  A    between atoms: C5_5  and  C6_6 
REMARK    2  A    between atoms: C6_6  and  O7_7 
ROOT
HETATM    1  C1  UNL     1     -32.856   6.981   2.636  1.00 20.00    -0.004 A 
HETATM    2  C2  UNL     1     -32.975   5.693   2.006  1.00 20.00    -0.004 A 
HETATM    3  C3  UNL     1     -33.371   6.927   3.872  1.00 20.00    -0.016 A 
HETATM    4  C4  UNL     1     -33.565   4.834   2.849  1.00 20.00    -0.016 A 
HETATM    5  C5  UNL     1     -33.884   5.536   4.144  1.00 20.00     0.054 A 
ENDROOT
BRANCH   5   6
HETATM    6  C6  UNL     1     -35.374   5.521   4.457  1.00 20.00     0.176 C 
BRANCH   6   7
HETATM    7  O7  UNL     1     -35.776   4.182   4.689  1.00 20.00    -0.400 OA
HETATM    8  H15 UNL     1     -36.728   4.201   4.886  1.00 20.00     0.209 HD
ENDBRANCH   6   7
ENDBRANCH   5   6
TORSDOF 2
