REMARK  0 active torsions:
REMARK  status: ('A' for Active; 'I' for Inactive)
ROOT
HETATM    1  C1  UNL     1     -34.685   5.083   3.734  1.00 20.00     0.178 C 
HETATM    2  C2  UNL     1     -34.545   4.331   5.046  1.00 20.00     0.102 C 
HETATM    3  C3  UNL     1     -34.055   6.881   5.043  1.00 20.00     0.241 C 
HETATM    4  O4  UNL     1     -33.827   6.230   3.789  1.00 20.00    -0.381 OA
HETATM    5  S5  UNL     1     -34.548   5.653   6.268  1.00 20.00    -0.141 SA
ENDROOT
TORSDOF 0
