REMARK  3 active torsions:
REMARK  status: ('A' for Active; 'I' for Inactive)
REMARK    1  A    between atoms: C1_1  and  C7_7 
REMARK    2  A    between atoms: C8_8  and  C10_10 
REMARK    3  A    between atoms: C9_9  and  C11_11 
ROOT
HETATM    1  C2  UNL     1     -34.935   5.767   5.848  1.00 20.00     0.012 C 
HETATM    2  C3  UNL     1     -33.917   6.947   5.686  1.00 20.00     0.006 C 
HETATM    3  C7  UNL     1     -34.995   5.033   4.461  1.00 20.00     0.052 C 
HETATM    4  C10 UNL     1     -33.181   6.481   4.461  1.00 20.00    -0.005 C 
HETATM    5  C11 UNL     1     -34.364   6.079   3.574  1.00 20.00     0.004 C 
ENDROOT
BRANCH   3   6
HETATM    6  C1  UNL     1     -36.406   4.735   4.072  1.00 20.00     0.236 C 
HETATM    7  O12 UNL     1     -37.142   3.993   4.714  1.00 20.00    -0.306 OA
ENDBRANCH   3   6
BRANCH   5   8
HETATM    8  C9  UNL     1     -33.698   5.976   2.191  1.00 20.00    -0.009 C 
HETATM    9  C5  UNL     1     -33.802   7.407   1.604  1.00 20.00     0.005 C 
HETATM   10  C4  UNL     1     -32.952   8.238   2.600  1.00 20.00     0.005 C 
HETATM   11  C8  UNL     1     -32.257   7.167   3.466  1.00 20.00    -0.010 C 
HETATM   12  C6  UNL     1     -32.183   5.982   2.467  1.00 20.00     0.010 C 
ENDBRANCH   5   8
TORSDOF 3
