REMARK  4 active torsions:
REMARK  status: ('A' for Active; 'I' for Inactive)
REMARK    1  A    between atoms: C5_5  and  C7_7 
REMARK    2  A    between atoms: C5_5  and  C8_8 
REMARK    3  A    between atoms: C6_6  and  C7_7 
REMARK    4  A    between atoms: C6_6  and  S9_9 
ROOT
HETATM    1  C5  UNL     1     -33.961   6.166   3.312  1.00 20.00     0.013 C 
ENDROOT
BRANCH   1   2
HETATM    2  C7  UNL     1     -32.445   6.458   3.184  1.00 20.00    -0.009 C 
HETATM    3  C1  UNL     1     -31.938   7.540   4.139  1.00 20.00     0.011 C 
BRANCH   2   4
HETATM    4  C6  UNL     1     -32.057   6.783   1.721  1.00 20.00     0.075 C 
BRANCH   4   5
HETATM    5  S9  UNL     1     -32.653   8.382   1.083  1.00 20.00    -0.182 SA
HETATM    6  H27 UNL     1     -32.117   8.249  -0.138  1.00 20.00     0.101 HD
ENDBRANCH   4   5
ENDBRANCH   2   4
ENDBRANCH   1   2
BRANCH   1   7
HETATM    7  C8  UNL     1     -34.470   5.276   4.486  1.00 20.00    -0.051 C 
HETATM    8  C2  UNL     1     -33.874   3.861   4.441  1.00 20.00     0.014 C 
HETATM    9  C3  UNL     1     -34.186   5.912   5.857  1.00 20.00     0.014 C 
HETATM   10  C4  UNL     1     -36.006   5.157   4.348  1.00 20.00     0.014 C 
ENDBRANCH   1   7
TORSDOF 4
