REMARK  1 active torsions:
REMARK  status: ('A' for Active; 'I' for Inactive)
REMARK    1  A    between atoms: C2_2  and  C4_4 
ROOT
HETATM    1  C3  UNL     1     -33.951   4.896   3.347  1.00 20.00     0.204 A 
HETATM    2  C4  UNL     1     -34.864   4.773   4.516  1.00 20.00     0.167 A 
HETATM    3  O5  UNL     1     -34.333   3.624   3.882  1.00 20.00    -0.377 OA
ENDROOT
BRANCH   2   4
HETATM    4  C2  UNL     1     -34.350   5.232   5.840  1.00 20.00    -0.003 C 
HETATM    5  C1  UNL     1     -34.371   6.504   6.251  1.00 20.00     0.009 C 
ENDBRANCH   2   4
TORSDOF 1
