REMARK  3 active torsions:
REMARK  status: ('A' for Active; 'I' for Inactive)
REMARK    1  A    between atoms: C1_1  and  C2_2 
REMARK    2  A    between atoms: C3_3  and  C8_8 
REMARK    3  A    between atoms: C8_8  and  C9_9 
ROOT
HETATM    1  C1  UNL     1     -32.916   6.430   1.956  1.00 20.00     0.043 C 
HETATM    2  C3  UNL     1     -33.122   5.628   3.017  1.00 20.00    -0.080 C 
HETATM    3  C4  UNL     1     -33.506   4.177   2.908  1.00 20.00     0.043 C 
ENDROOT
BRANCH   2   4
HETATM    4  C8  UNL     1     -32.884   6.164   4.419  1.00 20.00     0.042 C 
BRANCH   4   5
HETATM    5  C9  UNL     1     -34.104   6.776   5.168  1.00 20.00    -0.048 C 
HETATM    6  C5  UNL     1     -34.639   8.018   4.434  1.00 20.00     0.015 C 
HETATM    7  C6  UNL     1     -35.246   5.760   5.335  1.00 20.00     0.015 C 
HETATM    8  C7  UNL     1     -33.633   7.204   6.573  1.00 20.00     0.015 C 
ENDBRANCH   4   5
ENDBRANCH   2   4
BRANCH   1   9
HETATM    9  C2  UNL     1     -32.538   7.856   2.060  1.00 20.00     0.259 C 
HETATM   10  O10 UNL     1     -32.858   8.671   1.202  1.00 20.00    -0.302 OA
ENDBRANCH   1   9
TORSDOF 3
