REMARK  3 active torsions:
REMARK  status: ('A' for Active; 'I' for Inactive)
REMARK    1  A    between atoms: C3_3  and  C9_9 
REMARK    2  A    between atoms: C8_8  and  C10_10 
REMARK    3  A    between atoms: C9_9  and  C10_10 
ROOT
HETATM    1  C1  UNL     1     -34.147   5.087   5.637  1.00 20.00    -0.026 C 
HETATM    2  C2  UNL     1     -33.944   6.392   5.404  1.00 20.00    -0.025 C 
HETATM    3  C4  UNL     1     -35.777   5.765   4.148  1.00 20.00     0.017 C 
HETATM    4  C5  UNL     1     -33.961   4.511   3.244  1.00 20.00     0.013 C 
HETATM    5  C6  UNL     1     -34.916   4.537   4.460  1.00 20.00     0.009 C 
HETATM    6  C7  UNL     1     -34.571   6.710   4.066  1.00 20.00     0.012 C 
HETATM    7  C8  UNL     1     -33.763   6.027   2.931  1.00 20.00    -0.006 C 
ENDROOT
BRANCH   7   8
HETATM    8  C10 UNL     1     -32.303   6.443   2.836  1.00 20.00     0.012 C 
BRANCH   8   9
HETATM    9  C9  UNL     1     -32.166   7.920   2.487  1.00 20.00     0.070 C 
BRANCH   9  10
HETATM   10  C3  UNL     1     -32.831   8.269   1.177  1.00 20.00     0.231 C 
HETATM   11  O11 UNL     1     -33.719   9.104   1.045  1.00 20.00    -0.307 OA
ENDBRANCH   9  10
ENDBRANCH   8   9
ENDBRANCH   7   8
TORSDOF 3
