REMARK  2 active torsions:
REMARK  status: ('A' for Active; 'I' for Inactive)
REMARK    1  A    between atoms: C6_6  and  C8_8 
REMARK    2  A    between atoms: C7_7  and  C8_8 
ROOT
HETATM    1  C1  UNL     1     -34.773   5.862   5.576  1.00 20.00     0.075 C 
HETATM    2  C8  UNL     1     -34.726   5.158   4.273  1.00 20.00     0.186 C 
HETATM    3  N9  UNL     1     -34.804   6.427   6.590  1.00 20.00    -0.196 NA
ENDROOT
BRANCH   2   4
HETATM    4  C6  UNL     1     -33.866   5.859   3.277  1.00 20.00    -0.031 A 
HETATM    5  C2  UNL     1     -33.721   5.343   1.994  1.00 20.00     0.028 A 
HETATM    6  C4  UNL     1     -32.911   6.032   1.105  1.00 20.00     0.116 A 
HETATM    7  N10 UNL     1     -32.254   7.174   1.410  1.00 20.00    -0.273 NA
HETATM    8  C5  UNL     1     -32.419   7.645   2.666  1.00 20.00     0.116 A 
HETATM    9  C3  UNL     1     -33.206   7.031   3.628  1.00 20.00     0.028 A 
ENDBRANCH   2   4
BRANCH   2  10
HETATM   10  C7  UNL     1     -34.309   3.702   4.455  1.00 20.00     0.255 C 
HETATM   11  O11 UNL     1     -33.780   3.002   3.596  1.00 20.00    -0.305 OA
ENDBRANCH   2  10
TORSDOF 2
