REMARK  2 active torsions:
REMARK  status: ('A' for Active; 'I' for Inactive)
REMARK    1  A    between atoms: C6_6  and  O8_8 
REMARK    2  A    between atoms: N7_7  and  O8_8 
ROOT
HETATM    1  C1  UNL     1     -33.469   9.405   1.196  1.00 20.00     0.014 C 
HETATM    2  C2  UNL     1     -32.873   8.434   1.572  1.00 20.00    -0.089 C 
HETATM    3  C6  UNL     1     -32.144   7.251   2.031  1.00 20.00     0.296 C 
ENDROOT
BRANCH   3   4
HETATM    4  O8  UNL     1     -33.042   6.285   2.554  1.00 20.00    -0.244 OA
BRANCH   4   5
HETATM    5  N7  UNL     1     -33.377   6.664   3.861  1.00 20.00    -0.143 NA
HETATM    6  C3  UNL     1     -34.201   5.815   4.395  1.00 20.00     0.032 C 
HETATM    7  C4  UNL     1     -34.753   5.937   5.794  1.00 20.00     0.067 C 
HETATM    8  C5  UNL     1     -34.643   4.634   3.573  1.00 20.00     0.067 C 
ENDBRANCH   4   5
ENDBRANCH   3   4
TORSDOF 2
