REMARK  4 active torsions:
REMARK  status: ('A' for Active; 'I' for Inactive)
REMARK    1  A    between atoms: C1_1  and  C7_7 
REMARK    2  A    between atoms: C2_2  and  C9_9 
REMARK    3  A    between atoms: C9_9  and  C11_11 
REMARK    4  A    between atoms: C10_10  and  C11_11 
ROOT
HETATM    1  C3  UNL     1     -34.558   6.354   6.281  1.00 20.00     0.006 C 
HETATM    2  C4  UNL     1     -35.139   4.971   6.013  1.00 20.00     0.026 C 
HETATM    3  C5  UNL     1     -34.069   6.992   4.984  1.00 20.00     0.045 C 
HETATM    4  C6  UNL     1     -34.168   4.127   5.199  1.00 20.00     0.169 C 
HETATM    5  C7  UNL     1     -33.146   6.036   4.224  1.00 20.00     0.200 C 
HETATM    6  O12 UNL     1     -33.812   4.793   3.987  1.00 20.00    -0.374 OA
ENDROOT
BRANCH   5   7
HETATM    7  C1  UNL     1     -32.755   6.615   2.932  1.00 20.00    -0.074 C 
HETATM    8  C2  UNL     1     -32.436   7.089   1.876  1.00 20.00    -0.104 C 
BRANCH   8   9
HETATM    9  C9  UNL     1     -32.046   7.666   0.582  1.00 20.00     0.094 C 
BRANCH   9  10
HETATM   10  C11 UNL     1     -32.006   9.193   0.650  1.00 20.00     0.012 C 
BRANCH  10  11
HETATM   11  C10 UNL     1     -33.363   9.767   1.059  1.00 20.00    -0.004 C 
HETATM   12  C8  UNL     1     -33.316  11.283   1.166  1.00 20.00     0.005 C 
ENDBRANCH  10  11
ENDBRANCH   9  10
ENDBRANCH   8   9
ENDBRANCH   5   7
TORSDOF 4
