REMARK  0 active torsions:
REMARK  status: ('A' for Active; 'I' for Inactive)
ROOT
HETATM    1  C1  UNL     1     -33.639   5.810   2.950  1.00 20.00     0.145 C 
HETATM    2  C2  UNL     1     -33.614   6.081   5.457  1.00 20.00     0.061 C 
HETATM    3  C3  UNL     1     -32.256   7.733   3.813  1.00 20.00     0.061 C 
HETATM    4  C4  UNL     1     -34.494   6.014   4.204  1.00 20.00     0.103 C 
HETATM    5  C5  UNL     1     -32.245   6.444   2.984  1.00 20.00     0.103 C 
HETATM    6  C6  UNL     1     -35.646   5.009   4.246  1.00 20.00     0.024 C 
HETATM    7  C7  UNL     1     -31.664   6.558   1.575  1.00 20.00     0.024 C 
HETATM    8  O8  UNL     1     -34.046   5.177   1.976  1.00 20.00    -0.296 OA
HETATM    9  S9  UNL     1     -33.569   4.916   6.662  1.00 20.00    -0.076 SA
HETATM   10  S10 UNL     1     -32.061   9.277   3.190  1.00 20.00    -0.076 SA
HETATM   11  S11 UNL     1     -32.554   7.499   5.545  1.00 20.00    -0.074 SA
ENDROOT
TORSDOF 0
