REMARK  3 active torsions:
REMARK  status: ('A' for Active; 'I' for Inactive)
REMARK    1  A    between atoms: C3_3  and  C9_9 
REMARK    2  A    between atoms: C8_8  and  C10_10 
REMARK    3  A    between atoms: C9_9  and  C10_10 
ROOT
HETATM    1  C1  UNL     1     -34.129   5.257   6.032  1.00 20.00    -0.026 C 
HETATM    2  C2  UNL     1     -33.466   6.413   5.882  1.00 20.00    -0.025 C 
HETATM    3  C4  UNL     1     -35.365   6.559   4.577  1.00 20.00     0.017 C 
HETATM    4  C5  UNL     1     -34.113   4.795   3.599  1.00 20.00     0.013 C 
HETATM    5  C6  UNL     1     -35.014   5.089   4.819  1.00 20.00     0.009 C 
HETATM    6  C7  UNL     1     -33.899   7.009   4.560  1.00 20.00     0.012 C 
HETATM    7  C8  UNL     1     -33.297   6.117   3.442  1.00 20.00    -0.006 C 
ENDROOT
BRANCH   7   8
HETATM    8  C10 UNL     1     -33.441   6.726   2.052  1.00 20.00     0.012 C 
BRANCH   8   9
HETATM    9  C9  UNL     1     -32.673   8.035   1.937  1.00 20.00     0.070 C 
BRANCH   9  10
HETATM   10  C3  UNL     1     -32.821   8.674   0.578  1.00 20.00     0.231 C 
HETATM   11  O11 UNL     1     -33.508   8.226  -0.334  1.00 20.00    -0.307 OA
ENDBRANCH   9  10
ENDBRANCH   8   9
ENDBRANCH   7   8
TORSDOF 3
