REMARK  2 active torsions:
REMARK  status: ('A' for Active; 'I' for Inactive)
REMARK    1  A    between atoms: C2_2  and  C3_3 
REMARK    2  A    between atoms: N7_7  and  N8_8 
ROOT
HETATM    1  C2  UNL     1     -33.104   7.411   2.860  1.00 20.00     0.138 C 
HETATM    2  N7  UNL     1     -32.775   7.215   1.623  1.00 20.00    -0.214 NA
ENDROOT
BRANCH   1   3
HETATM    3  C3  UNL     1     -33.515   6.306   3.776  1.00 20.00    -0.047 C 
HETATM    4  C1  UNL     1     -33.829   6.680   5.029  1.00 20.00    -0.023 C 
HETATM    5  C4  UNL     1     -34.272   5.801   6.154  1.00 20.00     0.036 C 
HETATM    6  C5  UNL     1     -33.531   4.921   3.209  1.00 20.00     0.049 C 
ENDBRANCH   1   3
BRANCH   2   7
HETATM    7  N8  UNL     1     -32.433   8.351   0.979  1.00 20.00    -0.222 NA
HETATM    8  C6  UNL     1     -33.539   9.133   0.453  1.00 20.00     0.135 C 
HETATM    9  H20 UNL     1     -31.748   8.171   0.245  1.00 20.00     0.148 HD
ENDBRANCH   2   7
TORSDOF 2
