REMARK  1 active torsions:
REMARK  status: ('A' for Active; 'I' for Inactive)
REMARK    1  A    between atoms: C3_3  and  C8_8 
ROOT
HETATM    1  C1  UNL     1     -32.709   7.072   4.901  1.00 20.00     0.048 A 
HETATM    2  C2  UNL     1     -31.816   7.519   3.908  1.00 20.00     0.141 A 
HETATM    3  C3  UNL     1     -33.480   6.127   4.269  1.00 20.00     0.039 A 
HETATM    4  C7  UNL     1     -33.510   5.216   1.927  1.00 20.00     0.179 C 
HETATM    5  N9  UNL     1     -32.001   6.907   2.736  1.00 20.00    -0.185 NA
HETATM    6  N10 UNL     1     -33.019   6.066   2.987  1.00 20.00    -0.278 N 
ENDROOT
BRANCH   3   7
HETATM    7  C8  UNL     1     -34.638   5.258   4.786  1.00 20.00    -0.007 C 
HETATM    8  C4  UNL     1     -34.902   5.576   6.274  1.00 20.00     0.021 C 
HETATM    9  C5  UNL     1     -34.272   3.764   4.643  1.00 20.00     0.021 C 
HETATM   10  C6  UNL     1     -35.969   5.475   4.030  1.00 20.00     0.021 C 
ENDBRANCH   3   7
TORSDOF 1
