REMARK  3 active torsions:
REMARK  status: ('A' for Active; 'I' for Inactive)
REMARK    1  A    between atoms: C1_1  and  C3_3 
REMARK    2  A    between atoms: C2_2  and  C7_7 
REMARK    3  A    between atoms: C7_7  and  C8_8 
ROOT
HETATM    1  C1  UNL     1     -33.039   7.039   3.744  1.00 20.00     0.045 C 
HETATM    2  C2  UNL     1     -33.022   6.863   2.416  1.00 20.00    -0.023 C 
ENDROOT
BRANCH   2   3
HETATM    3  C7  UNL     1     -32.011   7.510   1.510  1.00 20.00     0.031 C 
BRANCH   3   4
HETATM    4  C8  UNL     1     -32.643   8.492   0.505  1.00 20.00    -0.019 C 
HETATM    5  C5  UNL     1     -33.648   7.754  -0.383  1.00 20.00     0.010 C 
HETATM    6  C6  UNL     1     -33.335   9.666   1.204  1.00 20.00     0.010 C 
ENDBRANCH   3   4
ENDBRANCH   2   3
BRANCH   1   7
HETATM    7  C3  UNL     1     -34.071   6.371   4.584  1.00 20.00     0.145 C 
HETATM    8  C4  UNL     1     -34.007   6.630   6.067  1.00 20.00     0.096 C 
HETATM    9  O9  UNL     1     -34.923   5.626   4.107  1.00 20.00    -0.294 OA
ENDBRANCH   1   7
TORSDOF 3
