REMARK  2 active torsions:
REMARK  status: ('A' for Active; 'I' for Inactive)
REMARK    1  A    between atoms: C4_4  and  C5_5 
REMARK    2  A    between atoms: C4_4  and  N6_6 
ROOT
HETATM    1  C1  UNL     1     -34.977   5.799   5.084  1.00 20.00     0.016 C 
HETATM    2  C2  UNL     1     -33.990   4.214   3.421  1.00 20.00     0.016 C 
HETATM    3  C3  UNL     1     -35.477   6.066   2.638  1.00 20.00     0.016 C 
HETATM    4  C5  UNL     1     -34.399   5.678   3.664  1.00 20.00    -0.036 C 
ENDROOT
BRANCH   4   5
HETATM    5  C4  UNL     1     -33.148   6.568   3.506  1.00 20.00     0.154 C 
BRANCH   5   6
HETATM    6  N6  UNL     1     -32.599   6.469   2.150  1.00 20.00    -0.063 NA
HETATM    7  O7  UNL     1     -32.611   7.554   1.546  1.00 20.00    -0.101 OA
ENDBRANCH   5   6
ENDBRANCH   4   5
TORSDOF 2
