REMARK  0 active torsions:
REMARK  status: ('A' for Active; 'I' for Inactive)
ROOT
HETATM    1  C1  UNL     1     -32.777   6.741   3.479  1.00 20.00     0.062 C 
HETATM    2  C2  UNL     1     -33.545   5.612   5.578  1.00 20.00     0.113 C 
HETATM    3  C3  UNL     1     -34.187   5.133   4.267  1.00 20.00     0.056 C 
HETATM    4  C4  UNL     1     -31.950   7.555   2.544  1.00 20.00     0.078 C 
HETATM    5  C5  UNL     1     -34.128   3.605   4.174  1.00 20.00     0.041 C 
HETATM    6  C6  UNL     1     -35.647   5.593   4.141  1.00 20.00     0.041 C 
HETATM    7  N7  UNL     1     -33.426   5.685   3.118  1.00 20.00    -0.277 NA
HETATM    8  S8  UNL     1     -32.835   7.217   5.154  1.00 20.00    -0.113 SA
ENDROOT
TORSDOF 0
