REMARK  1 active torsions:
REMARK  status: ('A' for Active; 'I' for Inactive)
REMARK    1  A    between atoms: C3_3  and  C7_7 
ROOT
HETATM    1  C1  UNL     1     -33.736   6.352   5.008  1.00 20.00    -0.082 C 
HETATM    2  C2  UNL     1     -33.916   5.522   3.957  1.00 20.00    -0.081 C 
HETATM    3  C4  UNL     1     -32.884   7.599   4.909  1.00 20.00     0.035 C 
HETATM    4  C5  UNL     1     -33.321   5.811   2.591  1.00 20.00     0.050 C 
HETATM    5  C6  UNL     1     -32.034   7.698   3.641  1.00 20.00     0.021 C 
HETATM    6  C7  UNL     1     -32.804   7.249   2.395  1.00 20.00     0.013 C 
HETATM    7  C8  UNL     1     -34.353   6.161   6.369  1.00 20.00     0.043 C 
HETATM    8  C9  UNL     1     -34.687   4.229   4.007  1.00 20.00     0.043 C 
HETATM    9  C10 UNL     1     -31.903   7.321   1.156  1.00 20.00     0.023 C 
ENDROOT
BRANCH   6  10
HETATM   10  C3  UNL     1     -33.958   8.187   2.136  1.00 20.00     0.240 C 
HETATM   11  O11 UNL     1     -33.821   9.391   1.946  1.00 20.00    -0.306 OA
ENDBRANCH   6  10
TORSDOF 1
