REMARK  1 active torsions:
REMARK  status: ('A' for Active; 'I' for Inactive)
REMARK    1  A    between atoms: C7_7  and  C11_11 
ROOT
HETATM    1  C1  UNL     1     -31.395   7.825   3.916  1.00 20.00     0.127 C 
HETATM    2  C2  UNL     1     -31.992   8.022   2.541  1.00 20.00     0.078 C 
HETATM    3  C3  UNL     1     -32.336   7.579   5.074  1.00 20.00     0.079 C 
HETATM    4  C4  UNL     1     -32.899   6.880   2.096  1.00 20.00     0.008 C 
HETATM    5  C5  UNL     1     -32.904   6.169   5.012  1.00 20.00     0.013 C 
HETATM    6  C6  UNL     1     -34.220   6.838   2.865  1.00 20.00     0.006 C 
HETATM    7  C7  UNL     1     -34.193   6.042   4.182  1.00 20.00    -0.007 C 
HETATM    8  O12 UNL     1     -30.179   7.905   4.095  1.00 20.00    -0.298 OA
ENDROOT
BRANCH   7   9
HETATM    9  C11 UNL     1     -34.487   4.558   3.926  1.00 20.00    -0.048 C 
HETATM   10  C8  UNL     1     -35.834   4.420   3.200  1.00 20.00     0.015 C 
HETATM   11  C9  UNL     1     -34.549   3.808   5.265  1.00 20.00     0.015 C 
HETATM   12  C10 UNL     1     -33.373   3.958   3.055  1.00 20.00     0.015 C 
ENDBRANCH   7   9
TORSDOF 1
