REMARK  1 active torsions:
REMARK  status: ('A' for Active; 'I' for Inactive)
REMARK    1  A    between atoms: C1_1  and  S12_12 
ROOT
HETATM    1  C1  UNL     1     -33.624   7.154   2.246  1.00 20.00     0.066 C 
HETATM    2  C2  UNL     1     -34.898   7.282   3.014  1.00 20.00     0.074 C 
HETATM    3  C3  UNL     1     -33.043   5.146   4.728  1.00 20.00     0.042 A 
HETATM    4  C4  UNL     1     -34.871   6.087   3.954  1.00 20.00     0.029 A 
HETATM    5  C5  UNL     1     -34.095   6.124   5.318  1.00 20.00    -0.039 A 
HETATM    6  C6  UNL     1     -33.737   5.213   3.354  1.00 20.00     0.056 A 
HETATM    7  C7  UNL     1     -34.907   5.506   6.459  1.00 20.00     0.015 C 
HETATM    8  C8  UNL     1     -33.494   7.462   5.745  1.00 20.00     0.015 C 
HETATM    9  C9  UNL     1     -34.133   3.896   2.720  1.00 20.00     0.041 C 
HETATM   10  N11 UNL     1     -32.969   6.052   2.413  1.00 20.00    -0.276 NA
ENDROOT
BRANCH   1  11
HETATM   11  S12 UNL     1     -33.111   8.434   1.204  1.00 20.00    -0.119 SA
HETATM   12  C10 UNL     1     -31.570   7.721   0.584  1.00 20.00     0.097 C 
ENDBRANCH   1  11
TORSDOF 1
