REMARK  1 active torsions:
REMARK  status: ('A' for Active; 'I' for Inactive)
REMARK    1  A    between atoms: C3_3  and  C7_7 
ROOT
HETATM    1  C1  UNL     1     -34.138   5.739   4.964  1.00 20.00    -0.082 C 
HETATM    2  C2  UNL     1     -33.595   6.972   5.084  1.00 20.00    -0.081 C 
HETATM    3  C4  UNL     1     -34.386   5.100   3.614  1.00 20.00     0.035 C 
HETATM    4  C5  UNL     1     -33.148   7.775   3.877  1.00 20.00     0.050 C 
HETATM    5  C6  UNL     1     -34.236   6.048   2.424  1.00 20.00     0.021 C 
HETATM    6  C7  UNL     1     -33.021   6.973   2.568  1.00 20.00     0.013 C 
HETATM    7  C8  UNL     1     -34.538   4.860   6.120  1.00 20.00     0.043 C 
HETATM    8  C9  UNL     1     -33.388   7.695   6.389  1.00 20.00     0.043 C 
HETATM    9  C10 UNL     1     -31.702   6.187   2.518  1.00 20.00     0.023 C 
ENDROOT
BRANCH   6  10
HETATM   10  C3  UNL     1     -33.015   7.953   1.422  1.00 20.00     0.240 C 
HETATM   11  O11 UNL     1     -32.173   8.835   1.291  1.00 20.00    -0.306 OA
ENDBRANCH   6  10
TORSDOF 1
