REMARK  0 active torsions:
REMARK  status: ('A' for Active; 'I' for Inactive)
ROOT
HETATM    1  C1  UNL     1     -35.005   5.053   5.506  1.00 20.00     0.028 C 
HETATM    2  C2  UNL     1     -34.599   6.435   6.016  1.00 20.00     0.017 C 
HETATM    3  C3  UNL     1     -35.035   5.012   3.981  1.00 20.00     0.188 C 
HETATM    4  C4  UNL     1     -33.284   6.890   5.400  1.00 20.00     0.140 C 
HETATM    5  O5  UNL     1     -32.047   7.183   3.038  1.00 20.00    -0.229 OA
HETATM    6  O6  UNL     1     -33.770   5.401   3.447  1.00 20.00    -0.296 OA
HETATM    7  S7  UNL     1     -33.428   6.973   3.585  1.00 20.00     0.152 S 
ENDROOT
TORSDOF 0
