REMARK  0 active torsions:
REMARK  status: ('A' for Active; 'I' for Inactive)
ROOT
HETATM    1  C1  UNL     1     -33.235   7.329   5.567  1.00 20.00    -0.002 A 
HETATM    2  C2  UNL     1     -32.395   7.491   4.413  1.00 20.00     0.010 A 
HETATM    3  C3  UNL     1     -34.143   6.351   5.639  1.00 20.00    -0.010 A 
HETATM    4  C4  UNL     1     -32.452   6.691   3.340  1.00 20.00    -0.015 A 
HETATM    5  C5  UNL     1     -33.440   5.565   3.326  1.00 20.00     0.166 A 
HETATM    6  C6  UNL     1     -34.369   5.343   4.540  1.00 20.00     0.035 A 
HETATM    7  C7  UNL     1     -31.574   6.864   2.140  1.00 20.00     0.052 C 
HETATM    8  C8  UNL     1     -34.104   3.935   5.091  1.00 20.00     0.027 C 
HETATM    9  C9  UNL     1     -35.821   5.452   4.054  1.00 20.00     0.027 C 
HETATM   10  O10 UNL     1     -33.498   4.825   2.341  1.00 20.00    -0.292 OA
ENDROOT
TORSDOF 0
