REMARK  1 active torsions:
REMARK  status: ('A' for Active; 'I' for Inactive)
REMARK    1  A    between atoms: C3_3  and  C5_5 
ROOT
HETATM    1  C1  UNL     1     -35.331   5.648   4.091  1.00 20.00     0.179 C 
HETATM    2  C2  UNL     1     -33.717   4.484   4.640  1.00 20.00     0.179 C 
HETATM    3  C3  UNL     1     -33.988   5.996   4.760  1.00 20.00     0.011 C 
HETATM    4  C4  UNL     1     -34.122   6.487   6.197  1.00 20.00     0.020 C 
HETATM    5  O6  UNL     1     -35.091   4.229   4.258  1.00 20.00    -0.389 OA
ENDROOT
BRANCH   3   6
HETATM    6  C5  UNL     1     -33.069   6.877   3.928  1.00 20.00     0.128 C 
HETATM    7 CL7  UNL     1     -33.115   6.379   2.226  1.00 20.00    -0.130 Cl
ENDBRANCH   3   6
TORSDOF 1
