REMARK  1 active torsions:
REMARK  status: ('A' for Active; 'I' for Inactive)
REMARK    1  A    between atoms: C6_6  and  C10_10 
ROOT
HETATM    1  C1  UNL     1     -32.845   5.360   2.202  1.00 20.00     0.052 C 
HETATM    2  C2  UNL     1     -33.260   6.635   2.213  1.00 20.00    -0.080 C 
HETATM    3  C3  UNL     1     -33.564   4.323   2.982  1.00 20.00     0.149 C 
HETATM    4  C4  UNL     1     -34.429   7.109   3.040  1.00 20.00     0.039 C 
HETATM    5  C5  UNL     1     -34.825   4.716   3.721  1.00 20.00     0.088 C 
HETATM    6  C6  UNL     1     -34.786   6.168   4.199  1.00 20.00     0.000 C 
HETATM    7  C7  UNL     1     -32.580   7.684   1.381  1.00 20.00     0.043 C 
HETATM    8  O11 UNL     1     -33.163   3.161   2.966  1.00 20.00    -0.293 OA
ENDROOT
BRANCH   6   9
HETATM    9  C10 UNL     1     -33.825   6.339   5.383  1.00 20.00    -0.018 C 
HETATM   10  C8  UNL     1     -33.849   7.780   5.889  1.00 20.00     0.010 C 
HETATM   11  C9  UNL     1     -34.180   5.369   6.507  1.00 20.00     0.010 C 
ENDBRANCH   6   9
TORSDOF 1
