REMARK  6 active torsions:
REMARK  status: ('A' for Active; 'I' for Inactive)
REMARK    1  A    between atoms: C1_1  and  C5_5 
REMARK    2  A    between atoms: C1_1  and  C8_8 
REMARK    3  A    between atoms: C6_6  and  O10_10 
REMARK    4  A    between atoms: C7_7  and  O11_11 
REMARK    5  A    between atoms: C8_8  and  O10_10 
REMARK    6  A    between atoms: C8_8  and  O11_11 
ROOT
HETATM    1  C8  UNL     1     -32.539   7.131   2.975  1.00 20.00     0.329 C 
ENDROOT
BRANCH   1   2
HETATM    2  C1  UNL     1     -33.376   5.997   2.393  1.00 20.00     0.181 C 
HETATM    3  O9  UNL     1     -34.364   6.215   1.692  1.00 20.00    -0.293 OA
BRANCH   2   4
HETATM    4  C5  UNL     1     -32.928   4.585   2.742  1.00 20.00     0.079 C 
HETATM    5  C2  UNL     1     -33.983   3.811   3.512  1.00 20.00     0.013 C 
ENDBRANCH   2   4
ENDBRANCH   1   2
BRANCH   1   6
HETATM    6  O10 UNL     1     -33.136   8.318   2.454  1.00 20.00    -0.355 OA
BRANCH   6   7
HETATM    7  C6  UNL     1     -32.725   8.582   1.119  1.00 20.00     0.167 C 
HETATM    8  C3  UNL     1     -33.396   9.851   0.638  1.00 20.00     0.033 C 
ENDBRANCH   6   7
ENDBRANCH   1   6
BRANCH   1   9
HETATM    9  O11 UNL     1     -32.597   7.096   4.394  1.00 20.00    -0.355 OA
BRANCH   9  10
HETATM   10  C7  UNL     1     -33.922   7.239   4.890  1.00 20.00     0.167 C 
HETATM   11  C4  UNL     1     -33.889   7.190   6.403  1.00 20.00     0.033 C 
ENDBRANCH   9  10
ENDBRANCH   1   9
TORSDOF 6
