REMARK  0 active torsions:
REMARK  status: ('A' for Active; 'I' for Inactive)
ROOT
HETATM    1  C1  UNL     1     -33.489   6.176   4.140  1.00 20.00     0.084 C 
HETATM    2  C2  UNL     1     -34.059   3.780   4.024  1.00 20.00     0.048 C 
HETATM    3  C3  UNL     1     -35.867   5.529   4.053  1.00 20.00     0.048 C 
HETATM    4  C4  UNL     1     -34.469   5.156   4.546  1.00 20.00     0.118 C 
HETATM    5  N5  UNL     1     -32.716   6.979   3.815  1.00 20.00    -0.195 NA
HETATM    6 CL6  UNL     1     -34.478   5.118   6.339  1.00 20.00    -0.104 Cl
ENDROOT
TORSDOF 0
