REMARK  0 active torsions:
REMARK  status: ('A' for Active; 'I' for Inactive)
ROOT
HETATM    1  C1  UNL     1     -35.012   6.149   4.758  1.00 20.00     0.009 A 
HETATM    2  C2  UNL     1     -34.209   6.832   3.936  1.00 20.00     0.074 A 
HETATM    3  C3  UNL     1     -35.128   4.720   4.658  1.00 20.00     0.043 A 
HETATM    4  C4  UNL     1     -34.426   4.054   3.731  1.00 20.00     0.108 A 
HETATM    5  C5  UNL     1     -33.418   6.113   2.894  1.00 20.00     0.248 A 
HETATM    6  C6  UNL     1     -32.831   3.942   1.852  1.00 20.00     0.160 C 
HETATM    7  N7  UNL     1     -33.574   4.715   2.846  1.00 20.00    -0.309 N 
HETATM    8  O8  UNL     1     -32.692   6.776   2.153  1.00 20.00    -0.268 OA
HETATM    9 CL9  UNL     1     -34.572   2.339   3.619  1.00 20.00    -0.064 Cl
ENDROOT
TORSDOF 0
