REMARK  0 active torsions:
REMARK  status: ('A' for Active; 'I' for Inactive)
ROOT
HETATM    1  C1  UNL     1     -33.742   4.996   3.551  1.00 20.00     0.149 C 
HETATM    2  C2  UNL     1     -34.889   4.427   4.364  1.00 20.00     0.080 C 
HETATM    3  C3  UNL     1     -34.712   4.717   5.845  1.00 20.00     0.007 C 
HETATM    4  C4  UNL     1     -34.492   6.203   6.105  1.00 20.00     0.003 C 
HETATM    5  C5  UNL     1     -33.269   6.709   5.340  1.00 20.00     0.033 C 
HETATM    6  C6  UNL     1     -33.335   6.445   3.828  1.00 20.00     0.093 C 
HETATM    7  C7  UNL     1     -31.991   6.779   3.178  1.00 20.00     0.041 C 
HETATM    8  O8  UNL     1     -33.232   4.333   2.646  1.00 20.00    -0.296 OA
HETATM    9 CL9  UNL     1     -34.597   7.467   3.063  1.00 20.00    -0.111 Cl
ENDROOT
TORSDOF 0
