REMARK  0 active torsions:
REMARK  status: ('A' for Active; 'I' for Inactive)
ROOT
HETATM    1  C1  UNL     1     -34.350   6.060   5.178  1.00 20.00     0.061 C 
HETATM    2  C2  UNL     1     -33.521   4.980   3.083  1.00 20.00     0.107 C 
HETATM    3  C3  UNL     1     -33.424   6.501   3.163  1.00 20.00     0.114 C 
HETATM    4  C4  UNL     1     -34.796   6.203   6.593  1.00 20.00     0.078 C 
HETATM    5  C5  UNL     1     -32.069   7.003   2.686  1.00 20.00     0.035 C 
HETATM    6  N6  UNL     1     -33.627   6.938   4.565  1.00 20.00    -0.282 NA
HETATM    7  S7  UNL     1     -34.777   4.602   4.321  1.00 20.00    -0.113 SA
ENDROOT
TORSDOF 0
