REMARK  0 active torsions:
REMARK  status: ('A' for Active; 'I' for Inactive)
ROOT
HETATM    1  C1  UNL     1     -34.159   4.850   4.026  1.00 20.00     0.021 A 
HETATM    2  C2  UNL     1     -33.828   3.712   3.388  1.00 20.00     0.004 A 
HETATM    3  C3  UNL     1     -33.213   5.787   2.084  1.00 20.00     0.145 A 
HETATM    4  C4  UNL     1     -34.822   4.954   5.365  1.00 20.00     0.069 C 
HETATM    5  C5  UNL     1     -34.019   2.295   3.814  1.00 20.00     0.058 C 
HETATM    6  C6  UNL     1     -34.120   7.334   3.873  1.00 20.00     0.157 C 
HETATM    7  N7  UNL     1     -33.827   6.012   3.320  1.00 20.00    -0.340 N 
HETATM    8  S8  UNL     1     -32.668   6.886   0.952  1.00 20.00    -0.052 SA
HETATM    9  S9  UNL     1     -33.072   4.037   1.850  1.00 20.00    -0.063 SA
ENDROOT
TORSDOF 0
