REMARK  2 active torsions:
REMARK  status: ('A' for Active; 'I' for Inactive)
REMARK    1  A    between atoms: C1_1  and  C7_7 
REMARK    2  A    between atoms: C7_7  and  C8_8 
ROOT
HETATM    1  C3  UNL     1     -33.487   7.425   5.499  1.00 20.00     0.018 C 
HETATM    2  C7  UNL     1     -34.020   7.002   4.126  1.00 20.00     0.058 C 
ENDROOT
BRANCH   2   3
HETATM    3  C1  UNL     1     -32.919   7.272   3.095  1.00 20.00     0.127 C 
HETATM    4  C2  UNL     1     -33.362   7.752   1.736  1.00 20.00     0.091 C 
HETATM    5  O9  UNL     1     -31.725   7.130   3.355  1.00 20.00    -0.298 OA
ENDBRANCH   2   3
BRANCH   2   6
HETATM    6  C8  UNL     1     -34.588   5.547   4.054  1.00 20.00    -0.041 C 
HETATM    7  C4  UNL     1     -36.085   5.578   3.680  1.00 20.00     0.015 C 
HETATM    8  C5  UNL     1     -33.851   4.660   3.034  1.00 20.00     0.015 C 
HETATM    9  C6  UNL     1     -34.473   4.874   5.440  1.00 20.00     0.015 C 
ENDBRANCH   2   6
TORSDOF 2
