REMARK  3 active torsions:
REMARK  status: ('A' for Active; 'I' for Inactive)
REMARK    1  A    between atoms: C3_3  and  C9_9 
REMARK    2  A    between atoms: C8_8  and  O11_11 
REMARK    3  A    between atoms: N10_10  and  O11_11 
ROOT
HETATM    1  C1  UNL     1     -33.648   8.930  -0.031  1.00 20.00     0.014 C 
HETATM    2  C2  UNL     1     -32.813   8.281   0.538  1.00 20.00    -0.089 C 
HETATM    3  C8  UNL     1     -31.794   7.491   1.228  1.00 20.00     0.296 C 
ENDROOT
BRANCH   3   4
HETATM    4  O11 UNL     1     -32.041   7.474   2.626  1.00 20.00    -0.244 OA
BRANCH   4   5
HETATM    5  N10 UNL     1     -33.040   6.526   2.880  1.00 20.00    -0.142 NA
HETATM    6  C3  UNL     1     -33.320   6.456   4.148  1.00 20.00     0.043 C 
HETATM    7  C4  UNL     1     -32.617   7.319   5.180  1.00 20.00     0.069 C 
BRANCH   6   8
HETATM    8  C9  UNL     1     -34.400   5.456   4.623  1.00 20.00    -0.009 C 
HETATM    9  C5  UNL     1     -34.547   5.550   6.148  1.00 20.00     0.021 C 
HETATM   10  C6  UNL     1     -33.995   4.033   4.210  1.00 20.00     0.021 C 
HETATM   11  C7  UNL     1     -35.767   5.771   3.986  1.00 20.00     0.021 C 
ENDBRANCH   6   8
ENDBRANCH   4   5
ENDBRANCH   3   4
TORSDOF 3
