REMARK  1 active torsions:
REMARK  status: ('A' for Active; 'I' for Inactive)
REMARK    1  A    between atoms: C1_1  and  C7_7 
ROOT
HETATM    1  C2  UNL     1     -34.026   5.912   6.395  1.00 20.00     0.001 C 
HETATM    2  C3  UNL     1     -33.331   5.237   2.523  1.00 20.00     0.016 C 
HETATM    3  C4  UNL     1     -35.069   4.988   5.782  1.00 20.00     0.005 C 
HETATM    4  C5  UNL     1     -34.145   7.178   5.558  1.00 20.00     0.006 C 
HETATM    5  C6  UNL     1     -33.979   4.335   3.559  1.00 20.00     0.006 C 
HETATM    6  C7  UNL     1     -33.132   6.541   3.286  1.00 20.00     0.091 C 
HETATM    7  C8  UNL     1     -34.970   5.250   4.281  1.00 20.00    -0.010 C 
HETATM    8  C9  UNL     1     -34.404   6.681   4.133  1.00 20.00     0.004 C 
ENDROOT
BRANCH   6   9
HETATM    9  C1  UNL     1     -32.968   7.685   2.338  1.00 20.00     0.177 C 
HETATM   10  O10 UNL     1     -33.934   7.872   1.546  1.00 20.00    -0.648 OA
HETATM   11  O11 UNL     1     -31.881   8.318   2.453  1.00 20.00    -0.648 OA
ENDBRANCH   6   9
TORSDOF 1
