REMARK  3 active torsions:
REMARK  status: ('A' for Active; 'I' for Inactive)
REMARK    1  A    between atoms: C3_3  and  C8_8 
REMARK    2  A    between atoms: C6_6  and  C7_7 
REMARK    3  A    between atoms: C7_7  and  C8_8 
ROOT
HETATM    1  C1  UNL     1     -34.771   6.122   5.822  1.00 20.00     0.197 C 
HETATM    2  C2  UNL     1     -34.238   4.743   6.103  1.00 20.00     0.197 C 
HETATM    3  C3  UNL     1     -34.564   4.969   3.882  1.00 20.00     0.263 C 
HETATM    4  O9  UNL     1     -35.332   6.002   4.515  1.00 20.00    -0.359 OA
HETATM    5  O10 UNL     1     -33.707   4.339   4.843  1.00 20.00    -0.359 OA
ENDROOT
BRANCH   3   6
HETATM    6  C8  UNL     1     -33.723   5.561   2.768  1.00 20.00     0.037 C 
HETATM    7  C5  UNL     1     -32.917   4.453   2.088  1.00 20.00     0.015 C 
BRANCH   6   8
HETATM    8  C7  UNL     1     -32.827   6.681   3.329  1.00 20.00     0.009 C 
BRANCH   8   9
HETATM    9  C6  UNL     1     -31.987   7.383   2.259  1.00 20.00    -0.004 C 
HETATM   10  C4  UNL     1     -32.863   7.966   1.160  1.00 20.00     0.005 C 
ENDBRANCH   8   9
ENDBRANCH   6   8
ENDBRANCH   3   6
TORSDOF 3
