REMARK  4 active torsions:
REMARK  status: ('A' for Active; 'I' for Inactive)
REMARK    1  A    between atoms: C2_2  and  C7_7 
REMARK    2  A    between atoms: C7_7  and  C9_9 
REMARK    3  A    between atoms: C8_8  and  C9_9 
REMARK    4  A    between atoms: C9_9  and  O10_10 
ROOT
HETATM    1  C6  UNL     1     -34.538   8.132   4.446  1.00 20.00     0.047 C 
HETATM    2  C9  UNL     1     -33.773   6.795   4.503  1.00 20.00     0.064 C 
ENDROOT
BRANCH   2   3
HETATM    3  C7  UNL     1     -33.247   6.401   3.075  1.00 20.00     0.037 C 
HETATM    4  C3  UNL     1     -32.520   5.047   3.031  1.00 20.00     0.017 C 
BRANCH   3   5
HETATM    5  C2  UNL     1     -32.301   7.435   2.498  1.00 20.00    -0.030 C 
HETATM    6  C1  UNL     1     -32.521   8.102   1.359  1.00 20.00     0.007 C 
ENDBRANCH   3   5
ENDBRANCH   2   3
BRANCH   2   7
HETATM    7  C8  UNL     1     -34.645   5.666   5.159  1.00 20.00     0.012 C 
HETATM    8  C4  UNL     1     -34.977   5.936   6.637  1.00 20.00     0.012 C 
HETATM    9  C5  UNL     1     -35.946   5.367   4.406  1.00 20.00     0.012 C 
ENDBRANCH   2   7
BRANCH   2  10
HETATM   10  O10 UNL     1     -32.641   6.995   5.365  1.00 20.00    -0.389 OA
HETATM   11  H28 UNL     1     -33.004   7.247   6.224  1.00 20.00     0.210 HD
ENDBRANCH   2  10
TORSDOF 4
