REMARK  1 active torsions:
REMARK  status: ('A' for Active; 'I' for Inactive)
REMARK    1  A    between atoms: C4_4  and  C11_11 
ROOT
HETATM    1  C1  UNL     1     -33.561   6.622   6.143  1.00 20.00     0.053 C 
HETATM    2  C2  UNL     1     -34.510   5.707   5.914  1.00 20.00    -0.072 C 
HETATM    3  C3  UNL     1     -33.174   7.152   4.832  1.00 20.00     0.155 C 
HETATM    4  C4  UNL     1     -34.086   6.646   3.741  1.00 20.00     0.075 C 
HETATM    5  C5  UNL     1     -34.834   5.474   4.443  1.00 20.00    -0.013 C 
HETATM    6  C6  UNL     1     -35.181   4.930   7.000  1.00 20.00     0.044 C 
HETATM    7  C7  UNL     1     -36.341   5.587   4.164  1.00 20.00     0.020 C 
HETATM    8  C8  UNL     1     -34.344   4.079   4.018  1.00 20.00     0.020 C 
HETATM    9  O12 UNL     1     -32.252   7.939   4.682  1.00 20.00    -0.293 OA
ENDROOT
BRANCH   4  10
HETATM   10  C11 UNL     1     -33.321   6.322   2.468  1.00 20.00    -0.010 C 
HETATM   11  C9  UNL     1     -34.266   6.260   1.267  1.00 20.00     0.010 C 
HETATM   12  C10 UNL     1     -32.216   7.350   2.221  1.00 20.00     0.010 C 
ENDBRANCH   4  10
TORSDOF 1
