REMARK  2 active torsions:
REMARK  status: ('A' for Active; 'I' for Inactive)
REMARK    1  A    between atoms: C1_1  and  C5_5 
REMARK    2  A    between atoms: C2_2  and  C6_6 
ROOT
HETATM    1  C1  UNL     1     -33.332   7.445   1.585  1.00 20.00    -0.063 C 
HETATM    2  C2  UNL     1     -33.599   6.629   2.424  1.00 20.00    -0.063 C 
ENDROOT
BRANCH   1   3
HETATM    3  C5  UNL     1     -33.013   8.418   0.584  1.00 20.00     0.141 A 
HETATM    4  C3  UNL     1     -33.032   8.005  -0.868  1.00 20.00     0.221 A 
HETATM    5  O9  UNL     1     -31.807   8.113  -0.130  1.00 20.00    -0.362 OA
HETATM    6  C7  UNL     1     -33.148   9.861   0.944  1.00 20.00     0.063 C 
ENDBRANCH   1   3
BRANCH   2   7
HETATM    7  C6  UNL     1     -33.925   5.636   3.447  1.00 20.00     0.141 A 
HETATM    8  C4  UNL     1     -35.091   5.910   4.342  1.00 20.00     0.221 A 
HETATM    9  O10 UNL     1     -33.741   6.149   4.761  1.00 20.00    -0.362 OA
HETATM   10  C8  UNL     1     -33.420   4.262   3.230  1.00 20.00     0.063 C 
ENDBRANCH   2   7
TORSDOF 2
