REMARK  2 active torsions:
REMARK  status: ('A' for Active; 'I' for Inactive)
REMARK    1  A    between atoms: C3_3  and  C6_6 
REMARK    2  A    between atoms: C6_6  and  C7_7 
ROOT
HETATM    1  C1  UNL     1     -35.104   5.400   4.404  1.00 20.00     0.281 C 
HETATM    2  C2  UNL     1     -34.860   5.665   5.881  1.00 20.00     0.106 C 
HETATM    3  C3  UNL     1     -33.187   6.766   4.168  1.00 20.00     0.282 C 
HETATM    4  N8  UNL     1     -33.820   5.524   3.699  1.00 20.00     0.098 N 
HETATM    5  S9  UNL     1     -33.705   7.053   5.888  1.00 20.00    -0.132 SA
HETATM    6  H24 UNL     1     -33.223   4.724   3.897  1.00 20.00     0.317 HD
ENDROOT
BRANCH   3   7
HETATM    7  C6  UNL     1     -33.583   7.947   3.288  1.00 20.00     0.050 C 
BRANCH   7   8
HETATM    8  C7  UNL     1     -32.764   8.050   1.990  1.00 20.00    -0.020 C 
HETATM    9  C4  UNL     1     -32.910   6.809   1.108  1.00 20.00     0.009 C 
HETATM   10  C5  UNL     1     -33.187   9.294   1.205  1.00 20.00     0.009 C 
ENDBRANCH   7   8
ENDBRANCH   3   7
TORSDOF 2
