REMARK  3 active torsions:
REMARK  status: ('A' for Active; 'I' for Inactive)
REMARK    1  A    between atoms: C4_4  and  C11_11 
REMARK    2  A    between atoms: C5_5  and  C9_9 
REMARK    3  A    between atoms: C8_8  and  C11_11 
ROOT
HETATM    1  C1  UNL     1     -35.109   4.777   4.980  1.00 20.00    -0.030 C 
HETATM    2  C2  UNL     1     -34.993   5.280   3.744  1.00 20.00    -0.025 C 
HETATM    3  C6  UNL     1     -34.318   5.280   6.148  1.00 20.00     0.027 C 
HETATM    4  C7  UNL     1     -33.659   6.632   5.877  1.00 20.00     0.016 C 
HETATM    5  C8  UNL     1     -34.028   6.380   3.375  1.00 20.00     0.025 C 
HETATM    6  C9  UNL     1     -33.001   6.662   4.495  1.00 20.00     0.055 C 
ENDROOT
BRANCH   5   7
HETATM    7  C11 UNL     1     -33.311   6.027   2.067  1.00 20.00     0.011 C 
HETATM    8  C10 UNL     1     -32.577   4.694   2.206  1.00 20.00     0.015 C 
BRANCH   7   9
HETATM    9  C4  UNL     1     -32.347   7.121   1.694  1.00 20.00    -0.032 C 
HETATM   10  C3  UNL     1     -32.678   8.186   0.955  1.00 20.00     0.007 C 
ENDBRANCH   7   9
ENDBRANCH   5   7
BRANCH   6  11
HETATM   11  C5  UNL     1     -32.368   8.009   4.303  1.00 20.00     0.236 C 
HETATM   12  O12 UNL     1     -31.227   8.278   4.666  1.00 20.00    -0.306 OA
ENDBRANCH   6  11
TORSDOF 3
