REMARK  0 active torsions:
REMARK  status: ('A' for Active; 'I' for Inactive)
ROOT
HETATM    1  C1  UNL     1     -33.631   6.220   4.763  1.00 20.00    -0.002 A 
HETATM    2  C2  UNL     1     -33.057   6.090   3.555  1.00 20.00    -0.064 A 
HETATM    3  C3  UNL     1     -34.320   4.979   5.186  1.00 20.00     0.215 A 
HETATM    4  C4  UNL     1     -33.201   4.769   2.859  1.00 20.00     0.117 A 
HETATM    5  C5  UNL     1     -33.659   7.393   5.682  1.00 20.00     0.053 C 
HETATM    6  C6  UNL     1     -32.280   7.138   2.822  1.00 20.00     0.045 C 
HETATM    7  O7  UNL     1     -34.917   4.835   6.240  1.00 20.00    -0.280 OA
HETATM    8  S8  UNL     1     -34.173   3.727   3.972  1.00 20.00    -0.083 SA
ENDROOT
TORSDOF 0
