REMARK  2 active torsions:
REMARK  status: ('A' for Active; 'I' for Inactive)
REMARK    1  A    between atoms: C2_2  and  C3_3 
REMARK    2  A    between atoms: C3_3  and  N4_4 
ROOT
HETATM    1  C1  UNL     1     -32.783   5.219   2.713  1.00 20.00     0.055 C 
HETATM    2  C3  UNL     1     -33.630   6.329   3.344  1.00 20.00     0.145 C 
HETATM    3 CL7  UNL     1     -32.570   7.233   4.495  1.00 20.00    -0.097 Cl
ENDROOT
BRANCH   2   4
HETATM    4  C2  UNL     1     -34.153   7.339   2.311  1.00 20.00     0.160 C 
HETATM    5 CL6  UNL     1     -32.950   7.758   1.058  1.00 20.00    -0.127 Cl
ENDBRANCH   2   4
BRANCH   2   6
HETATM    6  N4  UNL     1     -34.784   5.810   4.166  1.00 20.00    -0.036 NA
HETATM    7  O5  UNL     1     -34.512   5.618   5.356  1.00 20.00    -0.099 OA
ENDBRANCH   2   6
TORSDOF 2
