REMARK  3 active torsions:
REMARK  status: ('A' for Active; 'I' for Inactive)
REMARK    1  A    between atoms: C3_3  and  C10_10 
REMARK    2  A    between atoms: C7_7  and  C11_11 
REMARK    3  A    between atoms: C10_10  and  C11_11 
ROOT
HETATM    1  C1  UNL     1     -32.973   9.424   1.913  1.00 20.00    -0.024 C 
HETATM    2  C2  UNL     1     -33.271   9.007   0.670  1.00 20.00    -0.087 C 
HETATM    3  C4  UNL     1     -32.327   8.555   2.953  1.00 20.00     0.032 C 
HETATM    4  C5  UNL     1     -32.951   7.610   0.198  1.00 20.00     0.034 C 
HETATM    5  C6  UNL     1     -32.015   6.842   1.137  1.00 20.00     0.009 C 
HETATM    6  C7  UNL     1     -32.354   7.054   2.618  1.00 20.00    -0.007 C 
HETATM    7  C8  UNL     1     -33.945   9.902  -0.327  1.00 20.00     0.043 C 
ENDROOT
BRANCH   6   8
HETATM    8  C11 UNL     1     -33.700   6.419   2.986  1.00 20.00    -0.008 C 
HETATM    9  C9  UNL     1     -33.703   4.941   2.583  1.00 20.00     0.011 C 
BRANCH   8  10
HETATM   10  C10 UNL     1     -33.971   6.589   4.488  1.00 20.00     0.074 C 
BRANCH  10  11
HETATM   11  C3  UNL     1     -35.016   5.643   5.036  1.00 20.00     0.231 C 
HETATM   12  O12 UNL     1     -34.840   4.863   5.965  1.00 20.00    -0.307 OA
ENDBRANCH  10  11
ENDBRANCH   8  10
ENDBRANCH   6   8
TORSDOF 3
