REMARK  0 active torsions:
REMARK  status: ('A' for Active; 'I' for Inactive)
ROOT
HETATM    1  C1  UNL     1     -32.862   8.640   4.915  1.00 20.00     0.002 A 
HETATM    2  C2  UNL     1     -32.639   8.628   3.534  1.00 20.00     0.016 A 
HETATM    3  C3  UNL     1     -33.422   7.524   5.573  1.00 20.00     0.007 A 
HETATM    4  C4  UNL     1     -33.025   7.497   2.846  1.00 20.00     0.017 A 
HETATM    5  C5  UNL     1     -33.804   6.388   4.850  1.00 20.00    -0.051 A 
HETATM    6  C6  UNL     1     -33.631   6.424   3.477  1.00 20.00    -0.033 A 
HETATM    7  C7  UNL     1     -32.798   7.102   1.460  1.00 20.00     0.160 C 
HETATM    8  C8  UNL     1     -34.258   5.113   5.507  1.00 20.00     0.039 C 
HETATM    9  C9  UNL     1     -33.159   5.631   1.301  1.00 20.00     0.093 C 
HETATM   10  C10 UNL     1     -34.717   4.019   4.518  1.00 20.00     0.005 C 
HETATM   11  C11 UNL     1     -33.898   3.993   3.213  1.00 20.00     0.010 C 
HETATM   12  C12 UNL     1     -34.040   5.345   2.526  1.00 20.00     0.027 C 
HETATM   13  O13 UNL     1     -32.331   7.831   0.605  1.00 20.00    -0.292 OA
ENDROOT
TORSDOF 0
