REMARK  0 active torsions:
REMARK  status: ('A' for Active; 'I' for Inactive)
ROOT
HETATM    1  C1  UNL     1     -33.722   6.515   4.996  1.00 20.00    -0.014 A 
HETATM    2  C2  UNL     1     -33.584   6.419   3.667  1.00 20.00    -0.070 A 
HETATM    3  C3  UNL     1     -34.639   5.427   5.385  1.00 20.00     0.156 A 
HETATM    4  C4  UNL     1     -35.128   4.655   4.196  1.00 20.00     0.092 A 
HETATM    5  C5  UNL     1     -34.351   5.280   3.035  1.00 20.00     0.018 A 
HETATM    6  C6  UNL     1     -33.151   7.453   5.991  1.00 20.00     0.052 C 
HETATM    7  C7  UNL     1     -32.784   7.327   2.790  1.00 20.00     0.044 C 
HETATM    8  C8  UNL     1     -33.440   4.257   2.359  1.00 20.00     0.015 C 
HETATM    9  O9  UNL     1     -34.971   5.201   6.539  1.00 20.00    -0.293 OA
ENDROOT
TORSDOF 0
