REMARK  2 active torsions:
REMARK  status: ('A' for Active; 'I' for Inactive)
REMARK    1  A    between atoms: C1_1  and  C5_5 
REMARK    2  A    between atoms: C2_2  and  C6_6 
ROOT
HETATM    1  C1  UNL     1     -33.403   6.911   3.197  1.00 20.00    -0.063 C 
HETATM    2  C2  UNL     1     -33.125   7.505   2.191  1.00 20.00    -0.063 C 
ENDROOT
BRANCH   1   3
HETATM    3  C5  UNL     1     -33.733   6.204   4.397  1.00 20.00     0.141 A 
HETATM    4  C3  UNL     1     -34.308   4.812   4.289  1.00 20.00     0.221 A 
HETATM    5  O9  UNL     1     -32.926   5.035   4.598  1.00 20.00    -0.362 OA
HETATM    6  C7  UNL     1     -33.954   7.001   5.640  1.00 20.00     0.063 C 
ENDBRANCH   1   3
BRANCH   2   7
HETATM    7  C6  UNL     1     -32.788   8.229   0.965  1.00 20.00     0.141 A 
HETATM    8  C4  UNL     1     -33.913   8.749   0.128  1.00 20.00     0.221 A 
HETATM    9  O10 UNL     1     -33.186   9.594   1.030  1.00 20.00    -0.362 OA
HETATM   10  C8  UNL     1     -31.444   7.990   0.396  1.00 20.00     0.063 C 
ENDBRANCH   2   7
TORSDOF 2
