REMARK  1 active torsions:
REMARK  status: ('A' for Active; 'I' for Inactive)
REMARK    1  A    between atoms: C6_6  and  O11_11 
ROOT
HETATM    1  C1  UNL     1     -33.795   6.892   4.267  1.00 20.00     0.011 A 
HETATM    2  C2  UNL     1     -34.474   6.248   5.304  1.00 20.00     0.037 A 
HETATM    3  C3  UNL     1     -34.351   4.124   4.126  1.00 20.00     0.044 A 
HETATM    4  C4  UNL     1     -33.412   6.147   3.163  1.00 20.00    -0.048 A 
HETATM    5  C5  UNL     1     -33.689   4.774   3.097  1.00 20.00    -0.049 A 
HETATM    6  C6  UNL     1     -34.751   4.874   5.234  1.00 20.00     0.066 A 
HETATM    7  C7  UNL     1     -33.141   4.175   1.840  1.00 20.00     0.040 C 
HETATM    8  C8  UNL     1     -32.953   5.430   0.975  1.00 20.00     0.014 C 
HETATM    9  C9  UNL     1     -32.643   6.587   1.948  1.00 20.00     0.015 C 
HETATM   10  C10 UNL     1     -33.046   7.939   1.381  1.00 20.00     0.015 C 
ENDROOT
BRANCH   6  11
HETATM   11  O11 UNL     1     -35.408   4.266   6.260  1.00 20.00    -0.361 OA
HETATM   12  H23 UNL     1     -35.613   4.911   6.955  1.00 20.00     0.217 HD
ENDBRANCH   6  11
TORSDOF 1
