REMARK  1 active torsions:
REMARK  status: ('A' for Active; 'I' for Inactive)
REMARK    1  A    between atoms: C2_2  and  O3_3 
ROOT
HETATM    1  C2  UNL     1     -34.379   5.146   4.118  1.00 20.00     0.524 C 
HETATM    2  F4  UNL     1     -33.910   4.304   3.172  1.00 20.00    -0.144 F 
HETATM    3  F5  UNL     1     -35.619   5.542   3.760  1.00 20.00    -0.144 F 
HETATM    4  F6  UNL     1     -33.567   6.222   4.174  1.00 20.00    -0.144 F 
ENDROOT
BRANCH   1   5
HETATM    5  O3  UNL     1     -34.408   4.474   5.365  1.00 20.00    -0.303 OA
HETATM    6  C1  UNL     1     -34.893   5.303   6.411  1.00 20.00     0.211 C 
ENDBRANCH   1   5
TORSDOF 1
