REMARK  2 active torsions:
REMARK  status: ('A' for Active; 'I' for Inactive)
REMARK    1  A    between atoms: C1_1  and  C4_4 
REMARK    2  A    between atoms: C4_4  and  C5_5 
ROOT
HETATM    1  C1  UNL     1     -34.062   5.486   3.229  1.00 20.00     0.244 A 
HETATM    2  C3  UNL     1     -32.844   7.239   2.076  1.00 20.00     0.147 C 
HETATM    3  N6  UNL     1     -32.764   6.072   2.946  1.00 20.00    -0.168 NA
HETATM    4  O7  UNL     1     -33.282   4.981   2.144  1.00 20.00    -0.279 OA
ENDROOT
BRANCH   1   5
HETATM    5  C4  UNL     1     -34.213   4.551   4.373  1.00 20.00     0.051 C 
BRANCH   5   6
HETATM    6  C5  UNL     1     -35.015   5.183   5.510  1.00 20.00    -0.001 C 
HETATM    7  C2  UNL     1     -34.327   6.424   6.055  1.00 20.00     0.005 C 
ENDBRANCH   5   6
ENDBRANCH   1   5
TORSDOF 2
