REMARK  2 active torsions:
REMARK  status: ('A' for Active; 'I' for Inactive)
REMARK    1  A    between atoms: C5_5  and  O12_12 
REMARK    2  A    between atoms: C11_11  and  O12_12 
ROOT
HETATM    1  C1  UNL     1     -32.971   6.532   0.739  1.00 20.00     0.036 C 
HETATM    2  C2  UNL     1     -32.778   8.683   2.048  1.00 20.00     0.013 C 
HETATM    3  C3  UNL     1     -31.971   6.504   3.071  1.00 20.00     0.040 C 
HETATM    4  C4  UNL     1     -33.615   7.894   1.029  1.00 20.00    -0.015 C 
HETATM    5  C5  UNL     1     -32.742   5.714   2.010  1.00 20.00     0.122 C 
HETATM    6  C6  UNL     1     -32.531   7.918   3.368  1.00 20.00    -0.045 C 
HETATM    7  C7  UNL     1     -33.773   8.695  -0.265  1.00 20.00     0.010 C 
HETATM    8  C8  UNL     1     -31.487   8.692   4.201  1.00 20.00     0.015 C 
HETATM    9  C9  UNL     1     -33.824   7.850   4.204  1.00 20.00     0.015 C 
ENDROOT
BRANCH   5  10
HETATM   10  O12 UNL     1     -33.986   5.276   2.545  1.00 20.00    -0.386 OA
BRANCH  10  11
HETATM   11  C11 UNL     1     -33.804   4.512   3.728  1.00 20.00     0.163 C 
HETATM   12  C10 UNL     1     -35.157   4.076   4.248  1.00 20.00     0.033 C 
ENDBRANCH  10  11
ENDBRANCH   5  10
TORSDOF 2
