REMARK  0 active torsions:
REMARK  status: ('A' for Active; 'I' for Inactive)
ROOT
HETATM    1  C1  UNL     1     -34.428   5.626   5.288  1.00 20.00     0.095 C 
HETATM    2  C2  UNL     1     -33.179   8.190   0.286  1.00 20.00     0.095 C 
HETATM    3  C3  UNL     1     -34.160   5.027   2.957  1.00 20.00    -0.007 C 
HETATM    4  C4  UNL     1     -33.272   8.749   2.641  1.00 20.00    -0.007 C 
HETATM    5  C5  UNL     1     -33.818   5.765   4.018  1.00 20.00     0.024 C 
HETATM    6  C6  UNL     1     -33.024   7.877   1.658  1.00 20.00     0.024 C 
HETATM    7  C7  UNL     1     -33.320   5.331   1.761  1.00 20.00     0.039 C 
HETATM    8  C8  UNL     1     -32.969   8.185   3.989  1.00 20.00     0.039 C 
HETATM    9  C9  UNL     1     -32.681   6.701   3.716  1.00 20.00     0.042 C 
HETATM   10  C10 UNL     1     -32.507   6.565   2.181  1.00 20.00     0.042 C 
HETATM   11  N11 UNL     1     -34.928   5.512   6.329  1.00 20.00    -0.192 NA
HETATM   12  N12 UNL     1     -33.306   8.446  -0.838  1.00 20.00    -0.192 NA
ENDROOT
TORSDOF 0
