REMARK  0 active torsions:
REMARK  status: ('A' for Active; 'I' for Inactive)
ROOT
HETATM    1  C1  UNL     1     -32.730   7.218   3.805  1.00 20.00     0.219 C 
HETATM    2  C2  UNL     1     -33.202   7.131   2.363  1.00 20.00     0.103 C 
HETATM    3  C3  UNL     1     -32.887   5.789   1.710  1.00 20.00     0.009 C 
HETATM    4  C4  UNL     1     -33.868   4.653   2.016  1.00 20.00     0.001 C 
HETATM    5  C5  UNL     1     -33.741   4.073   3.425  1.00 20.00     0.002 C 
HETATM    6  C6  UNL     1     -34.780   4.587   4.423  1.00 20.00     0.020 C 
HETATM    7  C7  UNL     1     -34.879   6.105   4.545  1.00 20.00     0.125 C 
HETATM    8  C8  UNL     1     -33.147   6.767   6.191  1.00 20.00     0.152 C 
HETATM    9  N9  UNL     1     -33.582   6.737   4.798  1.00 20.00    -0.356 N 
HETATM   10  O10 UNL     1     -31.614   7.695   4.033  1.00 20.00    -0.273 OA
ENDROOT
TORSDOF 0
