REMARK  2 active torsions:
REMARK  status: ('A' for Active; 'I' for Inactive)
REMARK    1  A    between atoms: C4_4  and  C8_8 
REMARK    2  A    between atoms: C8_8  and  N9_9 
ROOT
HETATM    1  C1  UNL     1     -34.521   6.406   5.620  1.00 20.00    -0.003 A 
HETATM    2  C2  UNL     1     -33.440   7.197   5.093  1.00 20.00     0.004 A 
HETATM    3  C3  UNL     1     -34.954   5.553   4.681  1.00 20.00    -0.022 A 
HETATM    4  C4  UNL     1     -33.200   6.836   3.823  1.00 20.00    -0.049 A 
HETATM    5  C5  UNL     1     -34.151   5.739   3.426  1.00 20.00     0.063 A 
ENDROOT
BRANCH   4   6
HETATM    6  C8  UNL     1     -32.181   7.378   2.892  1.00 20.00     0.306 C 
BRANCH   6   7
HETATM    7  N9  UNL     1     -32.867   7.921   1.749  1.00 20.00     0.083 N 
HETATM    8  C6  UNL     1     -31.966   8.043   0.593  1.00 20.00     0.309 C 
HETATM    9  C7  UNL     1     -33.458   9.233   2.053  1.00 20.00     0.309 C 
ENDBRANCH   6   7
ENDBRANCH   4   6
TORSDOF 2
