REMARK  5 active torsions:
REMARK  status: ('A' for Active; 'I' for Inactive)
REMARK    1  A    between atoms: C1_1  and  C6_6 
REMARK    2  A    between atoms: C1_1  and  S11_11 
REMARK    3  A    between atoms: C6_6  and  C8_8 
REMARK    4  A    between atoms: C7_7  and  C9_9 
REMARK    5  A    between atoms: C9_9  and  S11_11 
ROOT
HETATM    1  C1  UNL     1     -33.360   6.137   2.556  1.00 20.00     0.186 C 
HETATM    2  O10 UNL     1     -33.790   5.490   1.610  1.00 20.00    -0.285 OA
ENDROOT
BRANCH   1   3
HETATM    3  C6  UNL     1     -33.332   5.637   3.990  1.00 20.00     0.094 C 
BRANCH   3   4
HETATM    4  C8  UNL     1     -34.602   5.995   4.780  1.00 20.00    -0.015 C 
HETATM    5  C3  UNL     1     -35.829   5.378   4.107  1.00 20.00     0.010 C 
HETATM    6  C4  UNL     1     -34.511   5.515   6.230  1.00 20.00     0.010 C 
ENDBRANCH   3   4
ENDBRANCH   1   3
BRANCH   1   7
HETATM    7  S11 UNL     1     -32.654   7.747   2.364  1.00 20.00    -0.088 SA
BRANCH   7   8
HETATM    8  C9  UNL     1     -32.863   7.988   0.587  1.00 20.00     0.051 C 
HETATM    9  C5  UNL     1     -32.850   9.487   0.293  1.00 20.00     0.022 C 
BRANCH   8  10
HETATM   10  C7  UNL     1     -31.777   7.264  -0.221  1.00 20.00     0.011 C 
HETATM   11  C2  UNL     1     -31.926   7.414  -1.730  1.00 20.00     0.006 C 
ENDBRANCH   8  10
ENDBRANCH   7   8
ENDBRANCH   1   7
TORSDOF 5
