REMARK  1 active torsions:
REMARK  status: ('A' for Active; 'I' for Inactive)
REMARK    1  A    between atoms: C7_7  and  O9_9 
ROOT
HETATM    1  C1  UNL     1     -34.074   6.430   6.568  1.00 20.00    -0.023 C 
HETATM    2  C2  UNL     1     -34.371   5.128   6.429  1.00 20.00    -0.023 C 
HETATM    3  C3  UNL     1     -35.253   7.030   4.487  1.00 20.00     0.012 C 
HETATM    4  C4  UNL     1     -35.598   5.523   4.327  1.00 20.00     0.012 C 
HETATM    5  C5  UNL     1     -33.871   6.990   5.178  1.00 20.00     0.037 C 
HETATM    6  C6  UNL     1     -34.365   4.826   4.948  1.00 20.00     0.037 C 
HETATM    7  C7  UNL     1     -33.222   5.760   4.530  1.00 20.00     0.136 C 
ENDROOT
BRANCH   7   8
HETATM    8  O9  UNL     1     -33.077   5.886   3.130  1.00 20.00    -0.389 OA
HETATM    9  C8  UNL     1     -32.262   7.001   2.780  1.00 20.00     0.202 C 
ENDBRANCH   7   8
TORSDOF 1
