REMARK  2 active torsions:
REMARK  status: ('A' for Active; 'I' for Inactive)
REMARK    1  A    between atoms: C2_2  and  C3_3 
REMARK    2  A    between atoms: C3_3  and  O10_10 
ROOT
HETATM    1  C1  UNL     1     -33.708   5.704   3.572  1.00 20.00    -0.074 C 
HETATM    2  C2  UNL     1     -33.248   5.947   2.340  1.00 20.00     0.085 C 
HETATM    3  C4  UNL     1     -34.152   4.357   4.067  1.00 20.00     0.034 C 
HETATM    4  C5  UNL     1     -33.852   6.742   4.649  1.00 20.00     0.034 C 
HETATM    5  C6  UNL     1     -34.855   4.688   5.378  1.00 20.00     0.005 C 
HETATM    6  C7  UNL     1     -34.104   5.906   5.898  1.00 20.00     0.005 C 
ENDROOT
BRANCH   2   7
HETATM    7  C3  UNL     1     -32.839   7.315   1.960  1.00 20.00     0.282 C 
HETATM    8  O9  UNL     1     -32.385   8.154   2.721  1.00 20.00    -0.260 OA
BRANCH   7   9
HETATM    9  O10 UNL     1     -33.061   7.454   0.625  1.00 20.00    -0.323 OA
HETATM   10  C8  UNL     1     -32.717   8.730   0.075  1.00 20.00     0.213 C 
ENDBRANCH   7   9
ENDBRANCH   2   7
TORSDOF 2
