REMARK  1 active torsions:
REMARK  status: ('A' for Active; 'I' for Inactive)
REMARK    1  A    between atoms: C3_3  and  C6_6 
ROOT
HETATM    1  C1  UNL     1     -32.714   7.319   4.618  1.00 20.00    -0.024 C 
HETATM    2  C2  UNL     1     -33.207   6.705   3.526  1.00 20.00    -0.076 C 
HETATM    3  C4  UNL     1     -33.227   7.100   6.010  1.00 20.00     0.028 C 
HETATM    4  C5  UNL     1     -34.559   6.347   6.047  1.00 20.00     0.009 C 
HETATM    5  C6  UNL     1     -34.326   5.687   3.632  1.00 20.00     0.079 C 
HETATM    6  C7  UNL     1     -34.580   5.163   5.069  1.00 20.00    -0.004 C 
HETATM    7  C8  UNL     1     -32.715   7.076   2.153  1.00 20.00     0.044 C 
HETATM    8  C9  UNL     1     -33.600   4.073   5.528  1.00 20.00     0.011 C 
ENDROOT
BRANCH   5   9
HETATM    9  C3  UNL     1     -34.086   4.544   2.686  1.00 20.00     0.240 C 
HETATM   10  O10 UNL     1     -32.968   4.141   2.382  1.00 20.00    -0.306 OA
ENDBRANCH   5   9
TORSDOF 1
