REMARK  1 active torsions:
REMARK  status: ('A' for Active; 'I' for Inactive)
REMARK    1  A    between atoms: C3_3  and  C4_4 
ROOT
HETATM    1  C1  UNL     1     -33.638   6.337   3.415  1.00 20.00     0.086 C 
HETATM    2  C2  UNL     1     -34.182   6.154   5.818  1.00 20.00     0.050 C 
HETATM    3  C4  UNL     1     -34.453   5.618   4.411  1.00 20.00     0.134 C 
HETATM    4  N5  UNL     1     -32.998   6.908   2.632  1.00 20.00    -0.195 NA
HETATM    5 CL7  UNL     1     -33.902   3.901   4.357  1.00 20.00    -0.102 Cl
ENDROOT
BRANCH   3   6
HETATM    6  C3  UNL     1     -35.943   5.639   4.040  1.00 20.00     0.155 C 
HETATM    7 CL6  UNL     1     -36.974   4.780   5.220  1.00 20.00    -0.127 Cl
ENDBRANCH   3   6
TORSDOF 1
