REMARK  0 active torsions:
REMARK  status: ('A' for Active; 'I' for Inactive)
ROOT
HETATM    1  C1  UNL     1     -33.568   4.934   3.156  1.00 20.00     0.047 C 
HETATM    2  C2  UNL     1     -32.770   5.905   2.701  1.00 20.00    -0.014 C 
HETATM    3  C3  UNL     1     -34.551   5.194   4.233  1.00 20.00     0.152 C 
HETATM    4  C4  UNL     1     -34.084   7.654   3.957  1.00 20.00     0.025 C 
HETATM    5  C5  UNL     1     -34.556   6.551   4.912  1.00 20.00     0.056 C 
HETATM    6  C6  UNL     1     -32.799   7.348   3.152  1.00 20.00    -0.029 C 
HETATM    7  C7  UNL     1     -33.781   6.474   6.221  1.00 20.00     0.018 C 
HETATM    8  C8  UNL     1     -31.530   7.651   3.966  1.00 20.00     0.019 C 
HETATM    9  C9  UNL     1     -32.787   8.258   1.906  1.00 20.00     0.019 C 
HETATM   10  O10 UNL     1     -35.302   4.290   4.596  1.00 20.00    -0.293 OA
ENDROOT
TORSDOF 0
