REMARK  2 active torsions:
REMARK  status: ('A' for Active; 'I' for Inactive)
REMARK    1  A    between atoms: C6_6  and  C11_11 
REMARK    2  A    between atoms: C11_11  and  O12_12 
ROOT
HETATM    1  C1  UNL     1     -33.393   6.204   5.965  1.00 20.00     0.005 C 
HETATM    2  C2  UNL     1     -33.287   4.674   5.906  1.00 20.00     0.006 C 
HETATM    3  C3  UNL     1     -35.437   5.293   5.177  1.00 20.00     0.010 C 
HETATM    4  C4  UNL     1     -34.535   6.513   4.980  1.00 20.00    -0.007 C 
HETATM    5  C5  UNL     1     -34.319   4.300   4.826  1.00 20.00    -0.006 C 
HETATM    6  C6  UNL     1     -34.099   6.323   3.503  1.00 20.00     0.026 C 
HETATM    7  C7  UNL     1     -33.865   4.777   3.404  1.00 20.00    -0.038 C 
HETATM    8  C8  UNL     1     -32.431   4.352   3.051  1.00 20.00     0.015 C 
HETATM    9  C9  UNL     1     -34.790   4.170   2.326  1.00 20.00     0.015 C 
ENDROOT
BRANCH   6  10
HETATM   10  C11 UNL     1     -32.967   7.237   3.054  1.00 20.00     0.119 C 
HETATM   11  C10 UNL     1     -33.355   8.705   3.145  1.00 20.00     0.040 C 
BRANCH  10  12
HETATM   12  O12 UNL     1     -32.620   6.926   1.709  1.00 20.00    -0.396 OA
HETATM   13  H32 UNL     1     -31.900   7.527   1.461  1.00 20.00     0.210 HD
ENDBRANCH  10  12
ENDBRANCH   6  10
TORSDOF 2
