REMARK  3 active torsions:
REMARK  status: ('A' for Active; 'I' for Inactive)
REMARK    1  A    between atoms: C1_1  and  C4_4 
REMARK    2  A    between atoms: C2_2  and  C7_7 
REMARK    3  A    between atoms: C7_7  and  O8_8 
ROOT
HETATM    1  C1  UNL     1     -33.274   7.041   2.619  1.00 20.00    -0.070 C 
HETATM    2  C2  UNL     1     -33.890   6.312   3.350  1.00 20.00    -0.070 C 
ENDROOT
BRANCH   2   3
HETATM    3  C7  UNL     1     -34.640   5.423   4.244  1.00 20.00     0.193 C 
HETATM    4  C6  UNL     1     -34.338   3.963   3.946  1.00 20.00     0.053 C 
BRANCH   3   5
HETATM    5  O8  UNL     1     -36.040   5.627   4.073  1.00 20.00    -0.384 OA
HETATM    6  H18 UNL     1     -36.485   5.018   4.684  1.00 20.00     0.211 HD
ENDBRANCH   3   5
ENDBRANCH   2   3
BRANCH   1   7
HETATM    7  C4  UNL     1     -32.549   7.906   1.747  1.00 20.00    -0.018 C 
HETATM    8  C3  UNL     1     -31.258   8.165   2.002  1.00 20.00     0.028 C 
HETATM    9  C5  UNL     1     -33.255   8.503   0.565  1.00 20.00     0.057 C 
ENDBRANCH   1   7
TORSDOF 3
