REMARK  0 active torsions:
REMARK  status: ('A' for Active; 'I' for Inactive)
ROOT
HETATM    1  C1  UNL     1     -34.260   6.297   5.573  1.00 20.00     0.130 C 
HETATM    2  C2  UNL     1     -32.766   6.308   5.355  1.00 20.00     0.079 C 
HETATM    3  C3  UNL     1     -32.397   7.208   4.184  1.00 20.00     0.016 C 
HETATM    4  C4  UNL     1     -34.663   6.820   3.135  1.00 20.00     0.020 C 
HETATM    5  C5  UNL     1     -35.146   6.041   4.367  1.00 20.00     0.052 C 
HETATM    6  C6  UNL     1     -33.137   6.848   2.878  1.00 20.00    -0.047 C 
HETATM    7  C7  UNL     1     -35.310   4.543   4.143  1.00 20.00     0.018 C 
HETATM    8  C8  UNL     1     -32.841   7.942   1.828  1.00 20.00     0.015 C 
HETATM    9  C9  UNL     1     -32.624   5.517   2.302  1.00 20.00     0.015 C 
HETATM   10  O10 UNL     1     -34.737   6.389   6.705  1.00 20.00    -0.298 OA
ENDROOT
TORSDOF 0
