REMARK  0 active torsions:
REMARK  status: ('A' for Active; 'I' for Inactive)
ROOT
HETATM    1  C1  UNL     1     -31.857   6.968   3.208  1.00 20.00     0.006 C 
HETATM    2  C2  UNL     1     -31.919   7.242   1.700  1.00 20.00     0.006 C 
HETATM    3  C3  UNL     1     -34.058   8.071   3.589  1.00 20.00     0.021 C 
HETATM    4  C4  UNL     1     -33.235   6.813   3.892  1.00 20.00     0.005 C 
HETATM    5  C5  UNL     1     -33.033   8.233   1.315  1.00 20.00    -0.005 C 
HETATM    6  C6  UNL     1     -34.343   7.982   2.093  1.00 20.00     0.052 C 
HETATM    7  C7  UNL     1     -34.109   5.620   3.413  1.00 20.00     0.005 C 
HETATM    8  C8  UNL     1     -33.245   8.248  -0.201  1.00 20.00     0.011 C 
HETATM    9  C9  UNL     1     -35.197   5.280   4.449  1.00 20.00     0.027 C 
HETATM   10  C10 UNL     1     -33.332   4.342   3.093  1.00 20.00     0.027 C 
HETATM   11  S11 UNL     1     -34.954   6.262   1.908  1.00 20.00    -0.154 SA
ENDROOT
TORSDOF 0
