REMARK  2 active torsions:
REMARK  status: ('A' for Active; 'I' for Inactive)
REMARK    1  A    between atoms: C3_3  and  C5_5 
REMARK    2  A    between atoms: C5_5  and  C6_6 
ROOT
HETATM    1  C1  UNL     1     -34.538   5.019   3.773  1.00 20.00     0.202 C 
HETATM    2  C2  UNL     1     -34.579   5.783   5.075  1.00 20.00     0.144 C 
HETATM    3  C3  UNL     1     -33.689   7.098   3.470  1.00 20.00     0.261 C 
HETATM    4  C4  UNL     1     -34.234   4.949   6.289  1.00 20.00     0.042 C 
HETATM    5  O7  UNL     1     -34.395   6.048   2.793  1.00 20.00    -0.359 OA
HETATM    6  O8  UNL     1     -33.601   6.805   4.871  1.00 20.00    -0.354 OA
ENDROOT
BRANCH   3   7
HETATM    7  C5  UNL     1     -32.291   7.234   2.896  1.00 20.00     0.075 C 
BRANCH   7   8
HETATM    8  C6  UNL     1     -32.271   7.554   1.404  1.00 20.00     0.119 C 
HETATM    9 CL9  UNL     1     -33.081   9.095   1.043  1.00 20.00    -0.130 Cl
ENDBRANCH   7   8
ENDBRANCH   3   7
TORSDOF 2
