REMARK  2 active torsions:
REMARK  status: ('A' for Active; 'I' for Inactive)
REMARK    1  A    between atoms: C3_3  and  S9_9 
REMARK    2  A    between atoms: C6_6  and  S9_9 
ROOT
HETATM    1  C1  UNL     1     -32.124   8.851  -0.777  1.00 20.00     0.013 C 
HETATM    2  C2  UNL     1     -32.529   8.539   0.309  1.00 20.00    -0.107 C 
HETATM    3  C6  UNL     1     -33.030   8.163   1.633  1.00 20.00     0.174 C 
ENDROOT
BRANCH   3   4
HETATM    4  S9  UNL     1     -32.082   6.806   2.357  1.00 20.00    -0.092 SA
BRANCH   4   5
HETATM    5  C3  UNL     1     -33.229   6.249   3.531  1.00 20.00     0.125 C 
HETATM    6  N7  UNL     1     -33.679   6.999   4.480  1.00 20.00    -0.275 NA
HETATM    7  C4  UNL     1     -34.585   6.199   5.333  1.00 20.00     0.161 C 
HETATM    8  C5  UNL     1     -35.170   5.045   4.533  1.00 20.00     0.103 C 
HETATM    9  S8  UNL     1     -33.825   4.619   3.411  1.00 20.00    -0.102 SA
ENDBRANCH   4   5
ENDBRANCH   3   4
TORSDOF 2
