REMARK  0 active torsions:
REMARK  status: ('A' for Active; 'I' for Inactive)
ROOT
HETATM    1  C1  UNL     1     -34.866   4.631   5.543  1.00 20.00     0.061 A 
HETATM    2  C2  UNL     1     -34.612   5.626   6.398  1.00 20.00     0.061 A 
HETATM    3  C3  UNL     1     -33.541   6.381   4.157  1.00 20.00     0.254 A 
HETATM    4  O4  UNL     1     -32.957   6.991   3.273  1.00 20.00    -0.272 OA
HETATM    5  S5  UNL     1     -34.285   4.802   3.921  1.00 20.00    -0.052 SA
HETATM    6  S6  UNL     1     -33.727   6.988   5.799  1.00 20.00    -0.052 SA
ENDROOT
TORSDOF 0
