REMARK  2 active torsions:
REMARK  status: ('A' for Active; 'I' for Inactive)
REMARK    1  A    between atoms: C3_3  and  C4_4 
REMARK    2  A    between atoms: C4_4  and  S8_8 
ROOT
HETATM    1  C1  UNL     1     -34.505   5.932   5.375  1.00 20.00     0.109 C 
HETATM    2  C3  UNL     1     -33.655   6.487   4.346  1.00 20.00     0.116 C 
HETATM    3  N5  UNL     1     -35.192   5.480   6.194  1.00 20.00    -0.191 NA
HETATM    4  S7  UNL     1     -32.603   7.690   4.832  1.00 20.00    -0.071 SA
ENDROOT
BRANCH   2   5
HETATM    5  C4  UNL     1     -33.746   5.984   2.924  1.00 20.00     0.206 C 
HETATM    6  C2  UNL     1     -32.788   6.673   2.046  1.00 20.00     0.080 C 
HETATM    7  N6  UNL     1     -32.035   7.220   1.353  1.00 20.00    -0.196 NA
BRANCH   5   8
HETATM    8  S8  UNL     1     -33.468   4.181   2.922  1.00 20.00    -0.157 SA
HETATM    9  H10 UNL     1     -33.673   4.016   1.609  1.00 20.00     0.103 HD
ENDBRANCH   5   8
ENDBRANCH   2   5
TORSDOF 2
