REMARK  2 active torsions:
REMARK  status: ('A' for Active; 'I' for Inactive)
REMARK    1  A    between atoms: C4_4  and  C6_6 
REMARK    2  A    between atoms: C5_5  and  C6_6 
ROOT
HETATM    1  C1  UNL     1     -32.586   5.347   2.393  1.00 20.00     0.012 C 
HETATM    2  C2  UNL     1     -33.458   4.819   3.026  1.00 20.00    -0.117 C 
HETATM    3  C5  UNL     1     -34.527   4.169   3.797  1.00 20.00     0.095 C 
ENDROOT
BRANCH   3   4
HETATM    4  C6  UNL     1     -34.531   4.647   5.248  1.00 20.00     0.046 C 
BRANCH   4   5
HETATM    5  C4  UNL     1     -34.714   6.130   5.346  1.00 20.00     0.146 A 
HETATM    6  C3  UNL     1     -33.550   7.069   5.196  1.00 20.00     0.200 A 
HETATM    7  O7  UNL     1     -34.089   6.733   6.484  1.00 20.00    -0.381 OA
ENDBRANCH   4   5
ENDBRANCH   3   4
TORSDOF 2
