REMARK  0 active torsions:
REMARK  status: ('A' for Active; 'I' for Inactive)
ROOT
HETATM    1  C1  UNL     1     -34.046   4.135   4.011  1.00 20.00    -0.021 C 
HETATM    2  C2  UNL     1     -34.493   4.341   5.261  1.00 20.00    -0.025 C 
HETATM    3  C3  UNL     1     -33.584   6.526   3.731  1.00 20.00    -0.081 C 
HETATM    4  C4  UNL     1     -32.644   7.208   3.072  1.00 20.00     0.015 C 
HETATM    5  C5  UNL     1     -34.074   6.799   5.149  1.00 20.00     0.042 C 
HETATM    6  C6  UNL     1     -35.745   5.693   3.862  1.00 20.00     0.022 C 
HETATM    7  C7  UNL     1     -34.402   5.361   3.202  1.00 20.00     0.036 C 
HETATM    8  C8  UNL     1     -35.160   5.702   5.280  1.00 20.00     0.013 C 
ENDROOT
TORSDOF 0
