REMARK  0 active torsions:
REMARK  status: ('A' for Active; 'I' for Inactive)
ROOT
HETATM    1  C1  UNL     1     -33.063   6.821   3.850  1.00 20.00     0.017 A 
HETATM    2  C2  UNL     1     -33.879   5.689   3.401  1.00 20.00     0.296 A 
HETATM    3  C3  UNL     1     -34.384   6.092   5.561  1.00 20.00     0.270 A 
HETATM    4  C4  UNL     1     -32.198   7.441   3.045  1.00 20.00     0.025 C 
HETATM    5  C5  UNL     1     -33.352   7.134   5.265  1.00 20.00     0.155 A 
HETATM    6  O6  UNL     1     -33.892   5.175   2.298  1.00 20.00    -0.259 OA
HETATM    7  O7  UNL     1     -34.939   5.950   6.642  1.00 20.00    -0.264 OA
HETATM    8  O8  UNL     1     -34.632   5.316   4.468  1.00 20.00    -0.241 OA
ENDROOT
TORSDOF 0
