REMARK  1 active torsions:
REMARK  status: ('A' for Active; 'I' for Inactive)
REMARK    1  A    between atoms: C1_1  and  C2_2 
ROOT
HETATM    1  C2  UNL     1     -34.105   5.389   4.095  1.00 20.00     0.412 C 
HETATM    2  F4  UNL     1     -33.334   4.959   3.074  1.00 20.00    -0.168 F 
HETATM    3  F5  UNL     1     -33.908   6.717   4.231  1.00 20.00    -0.168 F 
HETATM    4  F6  UNL     1     -35.395   5.189   3.753  1.00 20.00    -0.168 F 
ENDROOT
BRANCH   1   5
HETATM    5  C1  UNL     1     -33.764   4.661   5.365  1.00 20.00     0.339 C 
HETATM    6  F3  UNL     1     -34.547   5.139   6.367  1.00 20.00    -0.246 F 
ENDBRANCH   1   5
TORSDOF 1
