REMARK  3 active torsions:
REMARK  status: ('A' for Active; 'I' for Inactive)
REMARK    1  A    between atoms: C1_1  and  C7_7 
REMARK    2  A    between atoms: C4_4  and  C6_6 
REMARK    3  A    between atoms: C6_6  and  C7_7 
ROOT
HETATM    1  C6  UNL     1     -32.197   6.830   2.193  1.00 20.00     0.015 C 
ENDROOT
BRANCH   1   2
HETATM    2  C4  UNL     1     -32.857   8.092   1.649  1.00 20.00    -0.014 A 
HETATM    3  C2  UNL     1     -32.065   9.062   0.816  1.00 20.00     0.005 A 
HETATM    4  C3  UNL     1     -33.138   8.224   0.178  1.00 20.00     0.005 A 
ENDBRANCH   1   2
BRANCH   1   5
HETATM    5  C7  UNL     1     -33.217   5.754   2.587  1.00 20.00     0.043 C 
HETATM    6  C5  UNL     1     -32.560   4.376   2.628  1.00 20.00     0.017 C 
BRANCH   5   7
HETATM    7  C1  UNL     1     -33.850   6.005   3.945  1.00 20.00     0.235 C 
HETATM    8  O8  UNL     1     -33.603   6.963   4.669  1.00 20.00    -0.306 OA
ENDBRANCH   5   7
ENDBRANCH   1   5
TORSDOF 3
