REMARK  1 active torsions:
REMARK  status: ('A' for Active; 'I' for Inactive)
REMARK    1  A    between atoms: C1_1  and  C2_2 
ROOT
HETATM    1  C2  UNL     1     -35.195   5.153   4.443  1.00 20.00     0.200 C 
HETATM    2 CL4  UNL     1     -36.955   4.894   4.203  1.00 20.00    -0.083 Cl
HETATM    3 CL5  UNL     1     -34.858   5.081   6.199  1.00 20.00    -0.083 Cl
HETATM    4 CL6  UNL     1     -34.322   3.826   3.617  1.00 20.00    -0.083 Cl
ENDROOT
BRANCH   1   5
HETATM    5  C1  UNL     1     -34.816   6.517   3.859  1.00 20.00     0.173 C 
HETATM    6 CL3  UNL     1     -33.081   6.908   4.029  1.00 20.00    -0.126 Cl
ENDBRANCH   1   5
TORSDOF 1
