REMARK  0 active torsions:
REMARK  status: ('A' for Active; 'I' for Inactive)
ROOT
HETATM    1  C1  UNL     1     -34.740   4.925   6.243  1.00 20.00     0.050 C 
HETATM    2  C2  UNL     1     -34.250   5.408   5.078  1.00 20.00     0.094 C 
HETATM    3 CL3  UNL     1     -34.382   4.517   3.599  1.00 20.00    -0.072 Cl
HETATM    4 CL4  UNL     1     -33.460   6.948   4.997  1.00 20.00    -0.072 Cl
ENDROOT
TORSDOF 0
