REMARK  0 active torsions:
REMARK  status: ('A' for Active; 'I' for Inactive)
ROOT
HETATM    1  C1  UNL     1     -35.851   5.742   3.863  1.00 20.00     0.068 C 
HETATM    2  C2  UNL     1     -34.489   5.282   4.366  1.00 20.00     0.184 C 
HETATM    3 CL3  UNL     1     -33.324   6.631   4.268  1.00 20.00    -0.084 Cl
HETATM    4 CL4  UNL     1     -34.624   4.744   6.064  1.00 20.00    -0.084 Cl
HETATM    5 CL5  UNL     1     -33.903   3.925   3.365  1.00 20.00    -0.084 Cl
ENDROOT
TORSDOF 0
