REMARK  0 active torsions:
REMARK  status: ('A' for Active; 'I' for Inactive)
ROOT
HETATM    1  C1  UNL     1     -33.253   6.957   4.282  1.00 20.00     0.409 C 
HETATM    2  C2  UNL     1     -34.476   6.768   6.161  1.00 20.00     0.247 C 
HETATM    3  C3  UNL     1     -35.012   5.852   5.110  1.00 20.00     0.343 C 
HETATM    4  O4  UNL     1     -32.389   7.328   3.502  1.00 20.00    -0.229 OA
HETATM    5  O5  UNL     1     -33.201   7.126   5.639  1.00 20.00    -0.293 OA
HETATM    6  O6  UNL     1     -34.408   6.320   3.919  1.00 20.00    -0.260 OA
HETATM    7  F7  UNL     1     -34.569   4.588   5.327  1.00 20.00    -0.217 F 
ENDROOT
TORSDOF 0
