REMARK  1 active torsions:
REMARK  status: ('A' for Active; 'I' for Inactive)
REMARK    1  A    between atoms: C2_2  and  C5_5 
ROOT
HETATM    1  C1  UNL     1     -33.125   7.337   5.090  1.00 20.00     0.088 A 
HETATM    2  C2  UNL     1     -33.800   6.344   4.411  1.00 20.00     0.147 A 
HETATM    3  C3  UNL     1     -32.731   7.235   2.716  1.00 20.00     0.071 A 
HETATM    4  C4  UNL     1     -32.252   7.484   1.339  1.00 20.00     0.078 C 
HETATM    5  N6  UNL     1     -33.576   6.284   3.050  1.00 20.00    -0.241 NA
HETATM    6  S10 UNL     1     -32.167   8.237   3.990  1.00 20.00    -0.085 SA
ENDROOT
BRANCH   2   7
HETATM    7  C5  UNL     1     -34.723   5.361   5.013  1.00 20.00     0.435 C 
HETATM    8  F7  UNL     1     -34.884   5.498   6.369  1.00 20.00    -0.165 F 
HETATM    9  F8  UNL     1     -35.999   5.408   4.511  1.00 20.00    -0.165 F 
HETATM   10  F9  UNL     1     -34.321   4.063   4.835  1.00 20.00    -0.165 F 
ENDBRANCH   2   7
TORSDOF 1
