REMARK  1 active torsions:
REMARK  status: ('A' for Active; 'I' for Inactive)
REMARK    1  A    between atoms: C3_3  and  C5_5 
ROOT
HETATM    1  C1  UNL     1     -33.341   6.080   2.553  1.00 20.00     0.032 A 
HETATM    2  C2  UNL     1     -33.833   5.562   3.767  1.00 20.00    -0.044 A 
HETATM    3  C3  UNL     1     -32.690   7.285   2.767  1.00 20.00     0.068 A 
HETATM    4  C4  UNL     1     -33.545   6.370   4.832  1.00 20.00    -0.010 A 
HETATM    5  C6  UNL     1     -34.584   4.357   4.196  1.00 20.00     0.040 C 
HETATM    6  C7  UNL     1     -34.044   5.860   6.130  1.00 20.00     0.047 C 
HETATM    7  C8  UNL     1     -35.013   4.735   5.649  1.00 20.00     0.010 C 
HETATM    8  S10 UNL     1     -32.692   7.752   4.434  1.00 20.00    -0.089 SA
ENDROOT
BRANCH   3   9
HETATM    9  C5  UNL     1     -32.051   8.137   1.817  1.00 20.00     0.259 C 
HETATM   10  O9  UNL     1     -32.708   9.050   1.244  1.00 20.00    -0.273 OA
HETATM   11 CL11 UNL     1     -30.323   7.961   1.397  1.00 20.00    -0.038 Cl
ENDBRANCH   3   9
TORSDOF 1
