REMARK  0 active torsions:
REMARK  status: ('A' for Active; 'I' for Inactive)
ROOT
HETATM    1  C1  UNL     1     -34.565   6.179   5.386  1.00 20.00     0.064 C 
HETATM    2  C2  UNL     1     -32.319   6.455   3.264  1.00 20.00     0.011 C 
HETATM    3  C3  UNL     1     -33.474   6.614   1.199  1.00 20.00     0.010 C 
HETATM    4  C4  UNL     1     -34.621   6.403   3.933  1.00 20.00     0.101 C 
HETATM    5  C5  UNL     1     -33.068   5.576   2.264  1.00 20.00    -0.009 C 
HETATM    6  C6  UNL     1     -33.514   7.391   3.481  1.00 20.00     0.007 C 
HETATM    7  C7  UNL     1     -33.838   7.856   2.039  1.00 20.00    -0.013 C 
HETATM    8  C8  UNL     1     -34.328   5.148   3.061  1.00 20.00     0.003 C 
HETATM    9  C9  UNL     1     -33.045   9.090   1.621  1.00 20.00     0.010 C 
HETATM   10  C10 UNL     1     -34.107   3.836   3.812  1.00 20.00     0.011 C 
HETATM   11  N11 UNL     1     -34.520   6.002   6.532  1.00 20.00    -0.197 NA
ENDROOT
TORSDOF 0
