REMARK  0 active torsions:
REMARK  status: ('A' for Active; 'I' for Inactive)
ROOT
HETATM    1  C1  UNL     1     -32.790   7.346   4.368  1.00 20.00     0.055 C 
HETATM    2  C2  UNL     1     -33.710   6.640   5.018  1.00 20.00    -0.046 C 
HETATM    3  C3  UNL     1     -32.811   6.775   3.008  1.00 20.00     0.150 C 
HETATM    4  C4  UNL     1     -33.988   6.431   6.452  1.00 20.00     0.202 C 
HETATM    5  C5  UNL     1     -33.718   5.569   2.912  1.00 20.00     0.094 C 
HETATM    6  C6  UNL     1     -34.348   4.480   5.206  1.00 20.00     0.177 C 
HETATM    7  C7  UNL     1     -34.460   5.632   4.232  1.00 20.00     0.048 C 
HETATM    8  O8  UNL     1     -32.128   7.209   2.092  1.00 20.00    -0.293 OA
HETATM    9  O9  UNL     1     -34.492   5.074   6.519  1.00 20.00    -0.386 OA
ENDROOT
TORSDOF 0
