REMARK  0 active torsions:
REMARK  status: ('A' for Active; 'I' for Inactive)
ROOT
HETATM    1  C1  UNL     1     -33.909   4.848   2.305  1.00 20.00     0.015 A 
HETATM    2  C2  UNL     1     -33.307   5.661   1.433  1.00 20.00     0.083 A 
HETATM    3  C3  UNL     1     -34.088   5.236   3.679  1.00 20.00    -0.028 A 
HETATM    4  C4  UNL     1     -33.640   6.439   4.069  1.00 20.00     0.063 A 
HETATM    5  C5  UNL     1     -32.808   6.982   1.861  1.00 20.00     0.287 A 
HETATM    6  C6  UNL     1     -34.761   4.272   4.616  1.00 20.00     0.041 C 
HETATM    7  C7  UNL     1     -33.789   6.964   5.466  1.00 20.00     0.066 C 
HETATM    8  C8  UNL     1     -34.590   4.654   6.090  1.00 20.00     0.005 C 
HETATM    9  C9  UNL     1     -34.783   6.153   6.302  1.00 20.00     0.007 C 
HETATM   10  O10 UNL     1     -32.252   7.731   1.064  1.00 20.00    -0.260 OA
HETATM   11  O11 UNL     1     -32.997   7.325   3.172  1.00 20.00    -0.279 OA
ENDROOT
TORSDOF 0
