REMARK  0 active torsions:
REMARK  status: ('A' for Active; 'I' for Inactive)
ROOT
HETATM    1  C1  UNL     1     -33.691   6.560   5.618  1.00 20.00     0.087 A 
HETATM    2  C2  UNL     1     -34.501   5.102   3.858  1.00 20.00     0.063 A 
HETATM    3  C3  UNL     1     -32.995   6.959   3.324  1.00 20.00     0.114 A 
HETATM    4  C4  UNL     1     -34.451   5.471   5.205  1.00 20.00     0.120 A 
HETATM    5  C5  UNL     1     -32.961   7.310   4.691  1.00 20.00     0.149 A 
HETATM    6  C6  UNL     1     -33.765   5.860   2.933  1.00 20.00     0.042 A 
HETATM    7  C7  UNL     1     -32.586   7.009   1.157  1.00 20.00     0.145 A 
HETATM    8  N8  UNL     1     -32.325   7.606   2.296  1.00 20.00    -0.230 NA
HETATM    9  F9  UNL     1     -35.143   4.764   6.109  1.00 20.00    -0.206 F 
HETATM   10  F10 UNL     1     -32.234   8.355   5.107  1.00 20.00    -0.203 F 
HETATM   11  S11 UNL     1     -33.629   5.655   1.226  1.00 20.00    -0.060 SA
HETATM   12 BR12 UNL     1     -31.838   7.622  -0.489  1.00 20.00    -0.021 Br
ENDROOT
TORSDOF 0
