REMARK  0 active torsions:
REMARK  status: ('A' for Active; 'I' for Inactive)
ROOT
HETATM    1  C1  UNL     1     -34.339   5.508   5.142  1.00 20.00     0.105 C 
HETATM    2  C2  UNL     1     -32.830   6.035   1.779  1.00 20.00     0.068 A 
HETATM    3  C3  UNL     1     -32.545   8.044   3.090  1.00 20.00     0.068 A 
HETATM    4  C4  UNL     1     -33.668   6.130   4.043  1.00 20.00     0.121 A 
HETATM    5  C5  UNL     1     -33.484   5.428   2.852  1.00 20.00     0.141 A 
HETATM    6  C6  UNL     1     -33.199   7.438   4.162  1.00 20.00     0.141 A 
HETATM    7  C7  UNL     1     -32.361   7.343   1.898  1.00 20.00     0.040 A 
HETATM    8  N8  UNL     1     -34.883   5.003   6.034  1.00 20.00    -0.191 NA
HETATM    9  F9  UNL     1     -33.930   4.170   2.721  1.00 20.00    -0.204 F 
HETATM   10  F10 UNL     1     -33.369   8.125   5.301  1.00 20.00    -0.204 F 
HETATM   11 CL11 UNL     1     -31.554   8.092   0.575  1.00 20.00    -0.084 Cl
ENDROOT
TORSDOF 0
