REMARK  0 active torsions:
REMARK  status: ('A' for Active; 'I' for Inactive)
ROOT
HETATM    1  C1  UNL     1     -33.398   6.818   4.234  1.00 20.00     0.050 A 
HETATM    2  C2  UNL     1     -33.771   5.532   3.896  1.00 20.00     0.010 A 
HETATM    3  C3  UNL     1     -32.676   6.779   2.168  1.00 20.00     0.168 A 
HETATM    4  C4  UNL     1     -33.629   7.399   5.585  1.00 20.00     0.060 C 
HETATM    5  C5  UNL     1     -34.485   4.578   4.791  1.00 20.00     0.048 C 
HETATM    6  C6  UNL     1     -34.656   6.571   6.379  1.00 20.00     0.006 C 
HETATM    7  C7  UNL     1     -34.400   5.059   6.251  1.00 20.00     0.006 C 
HETATM    8  N8  UNL     1     -32.764   7.536   3.241  1.00 20.00    -0.233 NA
HETATM    9  S9  UNL     1     -33.333   5.194   2.286  1.00 20.00    -0.061 SA
HETATM   10 CL10 UNL     1     -31.952   7.306   0.706  1.00 20.00    -0.054 Cl
ENDROOT
TORSDOF 0
