REMARK  2 active torsions:
REMARK  status: ('A' for Active; 'I' for Inactive)
REMARK    1  A    between atoms: C2_2  and  C7_7 
REMARK    2  A    between atoms: C3_3  and  C6_6 
ROOT
HETATM    1  C1  UNL     1     -33.638   6.521   3.485  1.00 20.00     0.066 A 
HETATM    2  C2  UNL     1     -33.034   6.352   2.227  1.00 20.00     0.068 A 
HETATM    3  C3  UNL     1     -34.037   5.256   3.827  1.00 20.00     0.094 A 
HETATM    4  N8  UNL     1     -33.056   5.080   1.821  1.00 20.00    -0.133 NA
HETATM    5  O9  UNL     1     -33.696   4.387   2.842  1.00 20.00    -0.216 OA
ENDROOT
BRANCH   2   6
HETATM    6  C7  UNL     1     -32.401   7.416   1.349  1.00 20.00     0.032 C 
HETATM    7  C4  UNL     1     -31.201   8.073   2.036  1.00 20.00     0.016 C 
HETATM    8  C5  UNL     1     -33.424   8.468   0.914  1.00 20.00     0.016 C 
ENDBRANCH   2   6
BRANCH   3   9
HETATM    9  C6  UNL     1     -34.728   4.689   4.992  1.00 20.00     0.181 C 
HETATM   10 CL10 UNL     1     -34.736   5.831   6.365  1.00 20.00    -0.123 Cl
ENDBRANCH   3   9
TORSDOF 2
