REMARK  3 active torsions:
REMARK  status: ('A' for Active; 'I' for Inactive)
REMARK    1  A    between atoms: C1_1  and  C6_6 
REMARK    2  A    between atoms: C4_4  and  C7_7 
REMARK    3  A    between atoms: C6_6  and  C7_7 
ROOT
HETATM    1  C7  UNL     1     -33.968   7.436   2.432  1.00 20.00     0.019 C 
ENDROOT
BRANCH   1   2
HETATM    2  C4  UNL     1     -33.762   6.488   3.581  1.00 20.00    -0.043 A 
HETATM    3  C2  UNL     1     -33.559   5.025   3.264  1.00 20.00     0.010 A 
HETATM    4  C3  UNL     1     -34.853   5.484   3.874  1.00 20.00     0.010 A 
HETATM    5  C5  UNL     1     -33.007   7.069   4.744  1.00 20.00     0.015 C 
ENDBRANCH   1   2
BRANCH   1   6
HETATM    6  C6  UNL     1     -32.751   7.515   1.518  1.00 20.00     0.114 C 
BRANCH   6   7
HETATM    7  C1  UNL     1     -32.831   8.501   0.347  1.00 20.00     0.172 C 
HETATM    8  O8  UNL     1     -32.987   9.717   0.645  1.00 20.00    -0.648 OA
HETATM    9  O9  UNL     1     -32.716   7.963  -0.792  1.00 20.00    -0.648 OA
ENDBRANCH   6   7
ENDBRANCH   1   6
TORSDOF 3
