REMARK  0 active torsions:
REMARK  status: ('A' for Active; 'I' for Inactive)
ROOT
HETATM    1  C1  UNL     1     -35.906   5.589   4.320  1.00 20.00     0.135 C 
HETATM    2  C2  UNL     1     -33.877   4.438   5.106  1.00 20.00     0.017 C 
HETATM    3  C3  UNL     1     -34.337   6.814   5.767  1.00 20.00     0.017 C 
HETATM    4  C4  UNL     1     -34.150   5.057   2.678  1.00 20.00     0.037 C 
HETATM    5  C5  UNL     1     -34.610   7.439   3.340  1.00 20.00     0.037 C 
HETATM    6  C6  UNL     1     -32.504   6.301   4.124  1.00 20.00     0.030 C 
HETATM    7  C7  UNL     1     -34.864   4.548   3.937  1.00 20.00     0.058 C 
HETATM    8  C8  UNL     1     -35.332   6.967   4.610  1.00 20.00     0.058 C 
HETATM    9  C9  UNL     1     -33.231   5.809   5.388  1.00 20.00    -0.011 C 
HETATM   10  C10 UNL     1     -33.503   6.432   2.958  1.00 20.00     0.039 C 
HETATM   11  O11 UNL     1     -37.105   5.338   4.388  1.00 20.00    -0.297 OA
HETATM   12 CL12 UNL     1     -32.652   7.004   1.494  1.00 20.00    -0.119 Cl
ENDROOT
TORSDOF 0
