REMARK  1 active torsions:
REMARK  status: ('A' for Active; 'I' for Inactive)
REMARK    1  A    between atoms: C3_3  and  C8_8 
ROOT
HETATM    1  C1  UNL     1     -32.942   4.466   5.970  1.00 20.00    -0.026 C 
HETATM    2  C2  UNL     1     -33.585   3.811   4.993  1.00 20.00    -0.025 C 
HETATM    3  C4  UNL     1     -35.130   5.211   5.984  1.00 20.00     0.018 C 
HETATM    4  C5  UNL     1     -33.515   6.675   5.024  1.00 20.00     0.022 C 
HETATM    5  C6  UNL     1     -33.713   5.737   6.236  1.00 20.00     0.009 C 
HETATM    6  C7  UNL     1     -34.781   4.652   4.599  1.00 20.00     0.021 C 
HETATM    7  C8  UNL     1     -34.293   5.940   3.894  1.00 20.00     0.080 C 
ENDROOT
BRANCH   7   8
HETATM    8  C3  UNL     1     -33.455   5.675   2.682  1.00 20.00     0.223 C 
HETATM    9  O9  UNL     1     -33.236   4.534   2.286  1.00 20.00    -0.279 OA
HETATM   10 CL10 UNL     1     -32.871   7.142   1.957  1.00 20.00    -0.043 Cl
ENDBRANCH   7   8
TORSDOF 1
