REMARK  3 active torsions:
REMARK  status: ('A' for Active; 'I' for Inactive)
REMARK    1  A    between atoms: C2_2  and  O6_6 
REMARK    2  A    between atoms: C3_3  and  C4_4 
REMARK    3  A    between atoms: C3_3  and  O6_6 
ROOT
HETATM    1  C1  UNL     1     -32.680   8.116   1.290  1.00 20.00     0.085 C 
HETATM    2  C2  UNL     1     -32.631   6.803   1.934  1.00 20.00     0.291 C 
HETATM    3  N5  UNL     1     -32.719   9.156   0.778  1.00 20.00    -0.195 NA
ENDROOT
BRANCH   2   4
HETATM    4  O6  UNL     1     -33.541   6.751   3.025  1.00 20.00    -0.369 OA
BRANCH   4   5
HETATM    5  C3  UNL     1     -33.512   5.484   3.669  1.00 20.00     0.286 C 
BRANCH   5   6
HETATM    6  C4  UNL     1     -34.505   5.484   4.802  1.00 20.00     0.408 C 
HETATM    7  F7  UNL     1     -34.205   6.451   5.697  1.00 20.00    -0.169 F 
HETATM    8  F8  UNL     1     -34.502   4.304   5.455  1.00 20.00    -0.169 F 
HETATM    9  F9  UNL     1     -35.757   5.713   4.354  1.00 20.00    -0.169 F 
ENDBRANCH   5   6
ENDBRANCH   4   5
ENDBRANCH   2   4
TORSDOF 3
