REMARK  0 active torsions:
REMARK  status: ('A' for Active; 'I' for Inactive)
ROOT
HETATM    1  C1  UNL     1     -33.526   4.394   4.756  1.00 20.00     0.042 C 
HETATM    2  C2  UNL     1     -33.446   6.825   5.490  1.00 20.00     0.042 C 
HETATM    3  C3  UNL     1     -34.480   6.315   2.887  1.00 20.00     0.174 C 
HETATM    4  C4  UNL     1     -32.964   6.201   3.107  1.00 20.00     0.017 C 
HETATM    5  C5  UNL     1     -32.630   4.756   3.554  1.00 20.00    -0.009 C 
HETATM    6  C6  UNL     1     -32.555   7.138   4.272  1.00 20.00    -0.009 C 
HETATM    7  C7  UNL     1     -34.356   5.622   5.178  1.00 20.00     0.058 C 
HETATM    8  C8  UNL     1     -32.758   3.734   2.425  1.00 20.00     0.010 C 
HETATM    9  C9  UNL     1     -32.608   8.618   3.897  1.00 20.00     0.010 C 
HETATM   10  C10 UNL     1     -35.252   5.292   6.368  1.00 20.00     0.046 C 
HETATM   11  O11 UNL     1     -35.211   5.983   4.076  1.00 20.00    -0.380 OA
ENDROOT
TORSDOF 0
