REMARK  2 active torsions:
REMARK  status: ('A' for Active; 'I' for Inactive)
REMARK    1  A    between atoms: C1_1  and  C2_2 
REMARK    2  A    between atoms: C2_2  and  C3_3 
ROOT
HETATM    1  C2  UNL     1     -33.788   6.493   4.291  1.00 20.00     0.213 C 
ENDROOT
BRANCH   1   2
HETATM    2  C1  UNL     1     -33.307   6.018   2.932  1.00 20.00     0.227 C 
HETATM    3  O4  UNL     1     -33.557   4.903   2.485  1.00 20.00    -0.280 OA
HETATM    4 CL8  UNL     1     -32.376   7.247   2.120  1.00 20.00    -0.043 Cl
ENDBRANCH   1   2
BRANCH   1   5
HETATM    5  C3  UNL     1     -34.579   5.440   5.034  1.00 20.00     0.395 C 
HETATM    6  F5  UNL     1     -35.685   5.077   4.351  1.00 20.00    -0.171 F 
HETATM    7  F6  UNL     1     -34.959   5.876   6.253  1.00 20.00    -0.171 F 
HETATM    8  F7  UNL     1     -33.828   4.330   5.214  1.00 20.00    -0.171 F 
ENDBRANCH   1   5
TORSDOF 2
