REMARK  0 active torsions:
REMARK  status: ('A' for Active; 'I' for Inactive)
ROOT
HETATM    1  C1  UNL     1     -32.936   7.162   4.717  1.00 20.00     0.345 C 
HETATM    2  C2  UNL     1     -33.581   5.464   3.101  1.00 20.00     0.345 C 
HETATM    3  C3  UNL     1     -34.530   5.128   5.662  1.00 20.00     0.151 C 
HETATM    4  N4  UNL     1     -33.362   6.886   3.348  1.00 20.00     0.101 N 
HETATM    5  S5  UNL     1     -34.236   6.891   5.958  1.00 20.00    -0.129 SA
HETATM    6  S6  UNL     1     -35.035   4.787   3.956  1.00 20.00    -0.129 SA
HETATM    7  H13 UNL     1     -34.220   7.400   3.150  1.00 20.00     0.317 HD
ENDROOT
TORSDOF 0
