REMARK  0 active torsions:
REMARK  status: ('A' for Active; 'I' for Inactive)
ROOT
HETATM    1  C1  UNL     1     -32.939   7.059   4.058  1.00 20.00     0.129 C 
HETATM    2  C2  UNL     1     -33.880   7.197   5.246  1.00 20.00     0.093 C 
HETATM    3  C3  UNL     1     -33.385   6.219   2.871  1.00 20.00     0.093 C 
HETATM    4  C4  UNL     1     -33.755   4.700   5.708  1.00 20.00     0.017 C 
HETATM    5  C5  UNL     1     -33.462   4.125   4.310  1.00 20.00     0.017 C 
HETATM    6  C6  UNL     1     -34.665   5.925   5.572  1.00 20.00     0.054 C 
HETATM    7  C7  UNL     1     -34.180   4.970   3.253  1.00 20.00     0.054 C 
HETATM    8  O8  UNL     1     -31.888   7.701   4.013  1.00 20.00    -0.298 OA
HETATM    9  S9  UNL     1     -35.668   5.480   4.139  1.00 20.00    -0.159 SA
ENDROOT
TORSDOF 0
