REMARK  2 active torsions:
REMARK  status: ('A' for Active; 'I' for Inactive)
REMARK    1  A    between atoms: C4_4  and  C10_10 
REMARK    2  A    between atoms: C10_10  and  O11_11 
ROOT
HETATM    1  C1  UNL     1     -33.260   7.055   2.369  1.00 20.00    -0.069 C 
HETATM    2  C2  UNL     1     -32.886   8.131   1.673  1.00 20.00    -0.085 C 
HETATM    3  C3  UNL     1     -33.243   5.575   2.053  1.00 20.00     0.043 C 
HETATM    4  C4  UNL     1     -34.277   5.461   3.204  1.00 20.00     0.025 C 
HETATM    5  C5  UNL     1     -33.836   6.861   3.774  1.00 20.00    -0.018 C 
HETATM    6  C6  UNL     1     -33.008   9.524   2.227  1.00 20.00     0.043 C 
HETATM    7  C7  UNL     1     -32.316   8.027   0.286  1.00 20.00     0.043 C 
HETATM    8  C8  UNL     1     -35.023   7.759   4.126  1.00 20.00     0.020 C 
HETATM    9  C9  UNL     1     -32.783   6.871   4.882  1.00 20.00     0.020 C 
ENDROOT
BRANCH   4  10
HETATM   10  C10 UNL     1     -34.149   4.230   4.088  1.00 20.00     0.170 C 
BRANCH  10  11
HETATM   11  O11 UNL     1     -35.152   4.282   5.089  1.00 20.00    -0.400 OA
HETATM   12  H29 UNL     1     -35.047   3.487   5.637  1.00 20.00     0.209 HD
ENDBRANCH  10  11
ENDBRANCH   4  10
TORSDOF 2
