REMARK  2 active torsions:
REMARK  status: ('A' for Active; 'I' for Inactive)
REMARK    1  A    between atoms: C4_4  and  C10_10 
REMARK    2  A    between atoms: C10_10  and  O11_11 
ROOT
HETATM    1  C1  UNL     1     -33.632   6.680   3.827  1.00 20.00    -0.069 C 
HETATM    2  C2  UNL     1     -34.114   6.290   5.010  1.00 20.00    -0.085 C 
HETATM    3  C3  UNL     1     -33.072   7.998   3.335  1.00 20.00     0.043 C 
HETATM    4  C4  UNL     1     -32.446   7.147   2.200  1.00 20.00     0.025 C 
HETATM    5  C5  UNL     1     -33.464   5.978   2.477  1.00 20.00    -0.018 C 
HETATM    6  C6  UNL     1     -34.620   4.894   5.245  1.00 20.00     0.043 C 
HETATM    7  C7  UNL     1     -34.184   7.218   6.190  1.00 20.00     0.043 C 
HETATM    8  C8  UNL     1     -34.741   5.942   1.637  1.00 20.00     0.020 C 
HETATM    9  C9  UNL     1     -32.793   4.606   2.531  1.00 20.00     0.020 C 
ENDROOT
BRANCH   4  10
HETATM   10  C10 UNL     1     -32.422   7.795   0.825  1.00 20.00     0.170 C 
BRANCH  10  11
HETATM   11  O11 UNL     1     -33.647   8.480   0.623  1.00 20.00    -0.400 OA
HETATM   12  H29 UNL     1     -33.604   8.883  -0.261  1.00 20.00     0.209 HD
ENDBRANCH  10  11
ENDBRANCH   4  10
TORSDOF 2
