REMARK  1 active torsions:
REMARK  status: ('A' for Active; 'I' for Inactive)
REMARK    1  A    between atoms: C2_2  and  C3_3 
ROOT
HETATM    1  C1  UNL     1     -33.796   6.496   3.880  1.00 20.00     0.010 C 
HETATM    2  C2  UNL     1     -33.491   7.727   3.451  1.00 20.00     0.074 C 
HETATM    3  C4  UNL     1     -33.604   5.267   3.025  1.00 20.00     0.058 C 
HETATM    4  C5  UNL     1     -34.506   4.238   3.713  1.00 20.00     0.026 C 
HETATM    5  C6  UNL     1     -34.532   4.664   5.182  1.00 20.00     0.122 C 
HETATM    6  C8  UNL     1     -34.534   6.932   6.261  1.00 20.00     0.149 C 
HETATM    7  N9  UNL     1     -34.327   6.102   5.095  1.00 20.00    -0.388 N 
ENDROOT
BRANCH   2   8
HETATM    8  C3  UNL     1     -32.939   7.940   2.088  1.00 20.00     0.147 C 
HETATM    9  C7  UNL     1     -33.262   9.255   1.428  1.00 20.00     0.096 C 
HETATM   10  O10 UNL     1     -32.235   7.103   1.528  1.00 20.00    -0.294 OA
ENDBRANCH   2   8
TORSDOF 1
