REMARK  1 active torsions:
REMARK  status: ('A' for Active; 'I' for Inactive)
REMARK    1  A    between atoms: C6_6  and  C10_10 
ROOT
HETATM    1  C1  UNL     1     -32.292   7.609   2.858  1.00 20.00     0.053 C 
HETATM    2  C2  UNL     1     -32.854   7.137   1.735  1.00 20.00    -0.080 C 
HETATM    3  C3  UNL     1     -32.785   7.184   4.194  1.00 20.00     0.154 C 
HETATM    4  C4  UNL     1     -33.961   6.115   1.740  1.00 20.00     0.034 C 
HETATM    5  C5  UNL     1     -34.064   5.362   3.065  1.00 20.00     0.017 C 
HETATM    6  C6  UNL     1     -34.042   6.324   4.252  1.00 20.00     0.063 C 
HETATM    7  C7  UNL     1     -32.408   7.610   0.382  1.00 20.00     0.043 C 
HETATM    8  O11 UNL     1     -32.208   7.590   5.201  1.00 20.00    -0.293 OA
ENDROOT
BRANCH   6   9
HETATM    9  C10 UNL     1     -34.120   5.553   5.567  1.00 20.00    -0.011 C 
HETATM   10  C8  UNL     1     -34.605   6.462   6.695  1.00 20.00     0.010 C 
HETATM   11  C9  UNL     1     -35.037   4.340   5.425  1.00 20.00     0.010 C 
ENDBRANCH   6   9
TORSDOF 1
