REMARK  0 active torsions:
REMARK  status: ('A' for Active; 'I' for Inactive)
ROOT
HETATM    1  C1  UNL     1     -34.484   4.383   5.227  1.00 20.00     0.027 A 
HETATM    2  C2  UNL     1     -34.708   5.281   6.260  1.00 20.00     0.116 A 
HETATM    3  C3  UNL     1     -34.225   7.122   4.943  1.00 20.00     0.124 A 
HETATM    4  C4  UNL     1     -34.103   4.928   4.018  1.00 20.00    -0.049 A 
HETATM    5  C5  UNL     1     -33.969   6.309   3.862  1.00 20.00    -0.030 A 
HETATM    6  C6  UNL     1     -33.828   4.217   2.730  1.00 20.00     0.040 C 
HETATM    7  C7  UNL     1     -33.060   5.299   1.956  1.00 20.00     0.014 C 
HETATM    8  C8  UNL     1     -33.601   6.658   2.452  1.00 20.00     0.017 C 
HETATM    9  C9  UNL     1     -32.578   7.774   2.310  1.00 20.00     0.015 C 
HETATM   10  N10 UNL     1     -34.588   6.632   6.151  1.00 20.00    -0.273 NA
ENDROOT
TORSDOF 0
