REMARK  1 active torsions:
REMARK  status: ('A' for Active; 'I' for Inactive)
REMARK    1  A    between atoms: C1_1  and  C2_2 
ROOT
HETATM    1  C1  UNL     1     -33.354   6.566   4.161  1.00 20.00     0.028 C 
HETATM    2  C4  UNL     1     -33.865   6.977   5.526  1.00 20.00     0.059 C 
HETATM    3  C5  UNL     1     -34.329   5.754   6.308  1.00 20.00     0.008 C 
HETATM    4  C6  UNL     1     -34.965   4.686   5.419  1.00 20.00     0.022 C 
HETATM    5  C7  UNL     1     -35.229   5.197   4.009  1.00 20.00     0.149 C 
HETATM    6  N9  UNL     1     -33.994   5.723   3.416  1.00 20.00    -0.294 NA
ENDROOT
BRANCH   1   7
HETATM    7  C2  UNL     1     -32.104   7.185   3.684  1.00 20.00     0.022 C 
HETATM    8  C3  UNL     1     -31.870   7.380   2.403  1.00 20.00    -0.029 C 
HETATM    9  C8  UNL     1     -32.853   6.989   1.349  1.00 20.00     0.036 C 
ENDBRANCH   1   7
TORSDOF 1
