REMARK  4 active torsions:
REMARK  status: ('A' for Active; 'I' for Inactive)
REMARK    1  A    between atoms: C6_6  and  C8_8 
REMARK    2  A    between atoms: C7_7  and  C9_9 
REMARK    3  A    between atoms: C10_10  and  C11_11 
REMARK    4  A    between atoms: C11_11  and  O12_12 
ROOT
HETATM    1  C4  UNL     1     -32.489   6.822   3.328  1.00 20.00     0.012 C 
HETATM    2  C5  UNL     1     -33.363   4.810   2.345  1.00 20.00     0.012 C 
HETATM    3  C8  UNL     1     -33.893   6.641   3.898  1.00 20.00    -0.006 C 
HETATM    4  C9  UNL     1     -34.455   5.347   3.266  1.00 20.00    -0.006 C 
HETATM    5  C10 UNL     1     -32.508   6.038   2.009  1.00 20.00     0.010 C 
ENDROOT
BRANCH   5   6
HETATM    6  C11 UNL     1     -33.095   6.855   0.859  1.00 20.00     0.168 C 
BRANCH   6   7
HETATM    7  O12 UNL     1     -32.313   8.024   0.686  1.00 20.00    -0.400 OA
HETATM    8  H30 UNL     1     -32.707   8.524  -0.049  1.00 20.00     0.209 HD
ENDBRANCH   6   7
ENDBRANCH   5   6
BRANCH   3   9
HETATM    9  C6  UNL     1     -34.096   6.405   5.409  1.00 20.00    -0.010 C 
HETATM   10  C1  UNL     1     -33.178   5.309   5.975  1.00 20.00     0.005 C 
HETATM   11  C2  UNL     1     -33.736   4.025   5.347  1.00 20.00     0.005 C 
HETATM   12  C7  UNL     1     -34.911   4.531   4.493  1.00 20.00    -0.010 C 
HETATM   13  C3  UNL     1     -35.441   5.660   5.394  1.00 20.00     0.010 C 
ENDBRANCH   3   9
TORSDOF 4
