REMARK  0 active torsions:
REMARK  status: ('A' for Active; 'I' for Inactive)
ROOT
HETATM    1  C1  UNL     1     -32.598   6.995   1.857  1.00 20.00     0.064 C 
HETATM    2  C2  UNL     1     -34.104   6.773   3.804  1.00 20.00     0.045 C 
HETATM    3  C3  UNL     1     -33.471   4.759   2.448  1.00 20.00     0.045 C 
HETATM    4  C4  UNL     1     -34.619   5.808   4.866  1.00 20.00     0.169 C 
HETATM    5  C5  UNL     1     -34.021   3.908   3.586  1.00 20.00     0.169 C 
HETATM    6  C6  UNL     1     -32.998   6.120   2.970  1.00 20.00     0.097 C 
HETATM    7  N7  UNL     1     -32.282   7.686   0.979  1.00 20.00    -0.197 NA
HETATM    8  O8  UNL     1     -35.069   4.593   4.270  1.00 20.00    -0.391 OA
ENDROOT
TORSDOF 0
