REMARK  0 active torsions:
REMARK  status: ('A' for Active; 'I' for Inactive)
ROOT
HETATM    1  C1  UNL     1     -33.313   7.656   3.752  1.00 20.00     0.029 A 
HETATM    2  C2  UNL     1     -33.721   5.975   2.091  1.00 20.00     0.136 A 
HETATM    3  C3  UNL     1     -33.762   6.747   4.687  1.00 20.00    -0.032 A 
HETATM    4  C4  UNL     1     -33.296   7.264   2.415  1.00 20.00     0.029 A 
HETATM    5  C5  UNL     1     -34.162   5.484   4.265  1.00 20.00     0.040 A 
HETATM    6  C6  UNL     1     -33.856   6.880   6.170  1.00 20.00     0.041 C 
HETATM    7  C7  UNL     1     -34.561   4.633   5.436  1.00 20.00     0.060 C 
HETATM    8  C8  UNL     1     -34.789   5.706   6.511  1.00 20.00     0.011 C 
HETATM    9  N9  UNL     1     -34.154   5.059   2.990  1.00 20.00    -0.264 NA
HETATM   10 BR10 UNL     1     -32.708   8.449   1.073  1.00 20.00    -0.050 Br
ENDROOT
TORSDOF 0
