REMARK  0 active torsions:
REMARK  status: ('A' for Active; 'I' for Inactive)
ROOT
HETATM    1  C1  UNL     1     -34.250   5.561   5.766  1.00 20.00     0.011 C 
HETATM    2  C2  UNL     1     -35.152   4.907   4.717  1.00 20.00     0.011 C 
HETATM    3  C3  UNL     1     -33.857   6.999   5.433  1.00 20.00     0.075 C 
HETATM    4  C4  UNL     1     -34.460   3.970   3.731  1.00 20.00     0.075 C 
HETATM    5  C5  UNL     1     -33.237   6.319   2.792  1.00 20.00     0.147 C 
HETATM    6  S6  UNL     1     -32.521   7.183   4.214  1.00 20.00    -0.159 SA
HETATM    7  S7  UNL     1     -32.949   4.535   2.891  1.00 20.00    -0.159 SA
ENDROOT
TORSDOF 0
