REMARK  5 active torsions:
REMARK  status: ('A' for Active; 'I' for Inactive)
REMARK    1  A    between atoms: C3_3  and  C6_6 
REMARK    2  A    between atoms: C5_5  and  C7_7 
REMARK    3  A    between atoms: C6_6  and  C8_8 
REMARK    4  A    between atoms: C7_7  and  C9_9 
REMARK    5  A    between atoms: C8_8  and  C9_9 
ROOT
HETATM    1  C1  UNL     1     -34.866   5.880   4.489  1.00 20.00     0.059 C 
HETATM    2  C5  UNL     1     -34.993   5.565   3.060  1.00 20.00     0.124 C 
HETATM    3  N10 UNL     1     -34.767   6.131   5.618  1.00 20.00    -0.197 NA
ENDROOT
BRANCH   2   4
HETATM    4  C7  UNL     1     -33.725   4.925   2.493  1.00 20.00     0.014 C 
BRANCH   4   5
HETATM    5  C9  UNL     1     -32.480   5.800   2.687  1.00 20.00     0.001 C 
BRANCH   5   6
HETATM    6  C8  UNL     1     -32.654   7.165   2.014  1.00 20.00     0.004 C 
BRANCH   6   7
HETATM    7  C6  UNL     1     -32.866   7.069   0.498  1.00 20.00     0.033 C 
BRANCH   7   8
HETATM    8  C3  UNL     1     -33.020   8.398  -0.204  1.00 20.00    -0.093 C 
HETATM    9  C2  UNL     1     -32.910   9.558   0.462  1.00 20.00     0.014 C 
HETATM   10  C4  UNL     1     -33.264   8.367  -1.685  1.00 20.00     0.042 C 
ENDBRANCH   7   8
ENDBRANCH   6   7
ENDBRANCH   5   6
ENDBRANCH   4   5
ENDBRANCH   2   4
TORSDOF 5
