REMARK  6 active torsions:
REMARK  status: ('A' for Active; 'I' for Inactive)
REMARK    1  A    between atoms: C1_1  and  C6_6 
REMARK    2  A    between atoms: C1_1  and  C10_10 
REMARK    3  A    between atoms: C7_7  and  C8_8 
REMARK    4  A    between atoms: C8_8  and  C11_11 
REMARK    5  A    between atoms: C9_9  and  C10_10 
REMARK    6  A    between atoms: C9_9  and  C11_11 
ROOT
HETATM    1  C9  UNL     1     -32.572   6.390   4.302  1.00 20.00     0.016 C 
ENDROOT
BRANCH   1   2
HETATM    2  C10 UNL     1     -34.022   6.713   4.704  1.00 20.00     0.051 C 
HETATM    3  C4  UNL     1     -34.118   7.556   5.974  1.00 20.00     0.018 C 
BRANCH   2   4
HETATM    4  C1  UNL     1     -34.781   5.398   4.894  1.00 20.00     0.130 C 
HETATM    5  O12 UNL     1     -34.212   4.370   5.261  1.00 20.00    -0.298 OA
BRANCH   4   6
HETATM    6  C6  UNL     1     -36.268   5.430   4.575  1.00 20.00     0.074 C 
HETATM    7  C2  UNL     1     -36.947   4.094   4.819  1.00 20.00     0.013 C 
ENDBRANCH   4   6
ENDBRANCH   2   4
ENDBRANCH   1   2
BRANCH   1   8
HETATM    8  C11 UNL     1     -32.327   6.104   2.803  1.00 20.00    -0.018 C 
HETATM    9  C5  UNL     1     -33.110   4.845   2.408  1.00 20.00     0.010 C 
BRANCH   8  10
HETATM   10  C8  UNL     1     -32.705   7.313   1.922  1.00 20.00     0.004 C 
BRANCH  10  11
HETATM   11  C7  UNL     1     -31.967   7.355   0.581  1.00 20.00    -0.004 C 
HETATM   12  C3  UNL     1     -32.326   8.604  -0.211  1.00 20.00     0.005 C 
ENDBRANCH  10  11
ENDBRANCH   8  10
ENDBRANCH   1   8
TORSDOF 6
