REMARK  1 active torsions:
REMARK  status: ('A' for Active; 'I' for Inactive)
REMARK    1  A    between atoms: C3_3  and  C4_4 
ROOT
HETATM    1  C1  UNL     1     -32.844   6.981   1.920  1.00 20.00     0.087 C 
HETATM    2  C2  UNL     1     -33.214   5.676   2.347  1.00 20.00     0.093 C 
HETATM    3  C3  UNL     1     -33.701   5.454   3.575  1.00 20.00     0.011 C 
HETATM    4  N7  UNL     1     -32.542   8.044   1.568  1.00 20.00    -0.192 NA
ENDROOT
BRANCH   3   5
HETATM    5  C4  UNL     1     -33.887   6.505   4.551  1.00 20.00    -0.004 C 
HETATM    6  C5  UNL     1     -34.374   6.287   5.781  1.00 20.00    -0.031 C 
HETATM    7  C6  UNL     1     -34.779   4.940   6.285  1.00 20.00     0.036 C 
ENDBRANCH   3   5
TORSDOF 1
