REMARK  1 active torsions:
REMARK  status: ('A' for Active; 'I' for Inactive)
REMARK    1  A    between atoms: C3_3  and  C4_4 
ROOT
HETATM    1  C1  UNL     1     -34.429   4.694   5.455  1.00 20.00     0.087 C 
HETATM    2  C2  UNL     1     -34.383   4.001   4.215  1.00 20.00     0.093 C 
HETATM    3  C3  UNL     1     -33.967   4.603   3.092  1.00 20.00     0.011 C 
HETATM    4  N7  UNL     1     -34.466   5.256   6.469  1.00 20.00    -0.192 NA
ENDROOT
BRANCH   3   5
HETATM    5  C4  UNL     1     -33.537   5.983   3.051  1.00 20.00    -0.004 C 
HETATM    6  C5  UNL     1     -33.120   6.589   1.930  1.00 20.00    -0.031 C 
HETATM    7  C6  UNL     1     -32.675   8.014   1.874  1.00 20.00     0.036 C 
ENDBRANCH   3   5
TORSDOF 1
