REMARK  2 active torsions:
REMARK  status: ('A' for Active; 'I' for Inactive)
REMARK    1  A    between atoms: C1_1  and  C6_6 
REMARK    2  A    between atoms: C5_5  and  N7_7 
ROOT
HETATM    1  C1  UNL     1     -33.465   6.523   3.745  1.00 20.00     0.108 C 
HETATM    2  C2  UNL     1     -32.598   7.346   4.665  1.00 20.00     0.075 C 
HETATM    3  N7  UNL     1     -33.472   6.622   2.459  1.00 20.00    -0.285 NA
ENDROOT
BRANCH   1   4
HETATM    4  C6  UNL     1     -34.373   5.509   4.384  1.00 20.00     0.430 C 
HETATM    5  F8  UNL     1     -34.251   5.511   5.736  1.00 20.00    -0.165 F 
HETATM    6  F9  UNL     1     -34.121   4.241   3.970  1.00 20.00    -0.165 F 
HETATM    7  F10 UNL     1     -35.678   5.760   4.106  1.00 20.00    -0.165 F 
ENDBRANCH   1   4
BRANCH   3   8
HETATM    8  C5  UNL     1     -32.586   7.593   1.835  1.00 20.00     0.100 C 
HETATM    9  C3  UNL     1     -32.165   7.071   0.469  1.00 20.00     0.034 C 
HETATM   10  C4  UNL     1     -33.312   8.926   1.729  1.00 20.00     0.034 C 
ENDBRANCH   3   8
TORSDOF 2
