REMARK  1 active torsions:
REMARK  status: ('A' for Active; 'I' for Inactive)
REMARK    1  A    between atoms: C3_3  and  C5_5 
ROOT
HETATM    1  C1  UNL     1     -32.543   6.030   2.723  1.00 20.00     0.025 A 
HETATM    2  C2  UNL     1     -32.095   6.975   1.756  1.00 20.00     0.028 A 
HETATM    3  C3  UNL     1     -33.746   6.397   3.286  1.00 20.00     0.089 A 
HETATM    4  C4  UNL     1     -32.972   8.028   1.616  1.00 20.00     0.052 A 
HETATM    5  S9  UNL     1     -34.330   7.875   2.648  1.00 20.00    -0.078 SA
HETATM    6 BR10 UNL     1     -32.721   9.485   0.424  1.00 20.00    -0.043 Br
ENDROOT
BRANCH   3   7
HETATM    7  C5  UNL     1     -34.533   5.689   4.319  1.00 20.00     0.423 C 
HETATM    8  F6  UNL     1     -33.965   4.518   4.751  1.00 20.00    -0.166 F 
HETATM    9  F7  UNL     1     -34.738   6.416   5.463  1.00 20.00    -0.166 F 
HETATM   10  F8  UNL     1     -35.787   5.338   3.892  1.00 20.00    -0.166 F 
ENDBRANCH   3   7
TORSDOF 1
