REMARK  2 active torsions:
REMARK  status: ('A' for Active; 'I' for Inactive)
REMARK    1  A    between atoms: C1_1  and  N7_7 
REMARK    2  A    between atoms: N6_6  and  N8_8 
ROOT
HETATM    1  C1  UNL     1     -33.295   7.067   3.207  1.00 20.00     0.220 C 
HETATM    2  N6  UNL     1     -33.116   6.896   1.935  1.00 20.00    -0.195 NA
ENDROOT
BRANCH   1   3
HETATM    3  N7  UNL     1     -33.850   6.183   4.115  1.00 20.00    -0.383 N 
HETATM    4  C2  UNL     1     -34.322   4.872   3.694  1.00 20.00     0.150 C 
HETATM    5  C3  UNL     1     -34.224   6.615   5.455  1.00 20.00     0.150 C 
ENDBRANCH   1   3
BRANCH   2   6
HETATM    6  N8  UNL     1     -32.532   7.967   1.336  1.00 20.00    -0.216 NA
HETATM    7  C4  UNL     1     -31.700   7.648   0.168  1.00 20.00     0.138 C 
HETATM    8  C5  UNL     1     -33.481   9.020   0.968  1.00 20.00     0.138 C 
ENDBRANCH   2   6
TORSDOF 2
