REMARK  3 active torsions:
REMARK  status: ('A' for Active; 'I' for Inactive)
REMARK    1  A    between atoms: C1_1  and  C5_5 
REMARK    2  A    between atoms: C5_5  and  C6_6 
REMARK    3  A    between atoms: C5_5  and  O8_8 
ROOT
HETATM    1  C5  UNL     1     -34.083   6.796   4.506  1.00 20.00     0.186 C 
ENDROOT
BRANCH   1   2
HETATM    2  C1  UNL     1     -35.055   5.785   5.087  1.00 20.00     0.263 C 
HETATM    3  O7  UNL     1     -34.898   5.215   6.162  1.00 20.00    -0.304 OA
ENDBRANCH   1   2
BRANCH   1   4
HETATM    4  C6  UNL     1     -33.468   6.352   3.152  1.00 20.00    -0.019 C 
HETATM    5  C2  UNL     1     -32.486   7.411   2.619  1.00 20.00     0.017 C 
HETATM    6  C3  UNL     1     -34.599   6.182   2.115  1.00 20.00     0.017 C 
HETATM    7  C4  UNL     1     -32.734   5.003   3.283  1.00 20.00     0.017 C 
ENDBRANCH   1   4
BRANCH   1   8
HETATM    8  O8  UNL     1     -33.056   7.009   5.465  1.00 20.00    -0.388 OA
HETATM    9  H20 UNL     1     -33.488   7.348   6.266  1.00 20.00     0.210 HD
ENDBRANCH   1   8
TORSDOF 3
