REMARK  1 active torsions:
REMARK  status: ('A' for Active; 'I' for Inactive)
REMARK    1  A    between atoms: C2_2  and  C4_4 
ROOT
HETATM    1  C1  UNL     1     -33.871   5.964   5.504  1.00 20.00     0.146 C 
HETATM    2  C4  UNL     1     -34.341   5.334   4.272  1.00 20.00     0.388 C 
HETATM    3  N5  UNL     1     -33.501   6.462   6.485  1.00 20.00    -0.190 NA
HETATM    4  F9  UNL     1     -34.310   3.985   4.441  1.00 20.00    -0.181 F 
HETATM    5  F10 UNL     1     -35.650   5.660   4.098  1.00 20.00    -0.181 F 
ENDROOT
BRANCH   2   6
HETATM    6  C2  UNL     1     -33.490   5.730   3.110  1.00 20.00     0.247 C 
HETATM    7  C3  UNL     1     -33.310   6.984   2.680  1.00 20.00     0.308 C 
HETATM    8  F7  UNL     1     -32.520   7.246   1.618  1.00 20.00    -0.170 F 
HETATM    9  F8  UNL     1     -33.931   8.001   3.314  1.00 20.00    -0.170 F 
HETATM   10  F6  UNL     1     -32.871   4.742   2.420  1.00 20.00    -0.197 F 
ENDBRANCH   2   6
TORSDOF 1
