REMARK  0 active torsions:
REMARK  status: ('A' for Active; 'I' for Inactive)
ROOT
HETATM    1  C1  UNL     1     -32.669   7.635   4.850  1.00 20.00     0.009 A 
HETATM    2  C2  UNL     1     -32.348   8.111   3.579  1.00 20.00     0.024 A 
HETATM    3  C3  UNL     1     -33.874   6.518   2.594  1.00 20.00     0.033 A 
HETATM    4  C4  UNL     1     -33.591   6.590   5.002  1.00 20.00    -0.048 A 
HETATM    5  C5  UNL     1     -34.212   6.040   3.867  1.00 20.00    -0.022 A 
HETATM    6  C6  UNL     1     -32.948   7.552   2.452  1.00 20.00     0.034 A 
HETATM    7  C7  UNL     1     -33.960   6.104   6.380  1.00 20.00     0.069 C 
HETATM    8  C8  UNL     1     -35.187   4.896   4.007  1.00 20.00     0.308 C 
HETATM    9  C9  UNL     1     -34.672   4.750   6.354  1.00 20.00     0.274 C 
HETATM   10  N10 UNL     1     -35.743   4.760   5.358  1.00 20.00     0.087 N 
HETATM   11 CL11 UNL     1     -32.547   8.138   0.884  1.00 20.00    -0.084 Cl
HETATM   12  H21 UNL     1     -36.369   5.543   5.545  1.00 20.00     0.316 HD
ENDROOT
TORSDOF 0
