REMARK  0 active torsions:
REMARK  status: ('A' for Active; 'I' for Inactive)
ROOT
HETATM    1  C1  UNL     1     -33.441   4.815   2.653  1.00 20.00     0.064 C 
HETATM    2  C2  UNL     1     -31.549   7.646   4.151  1.00 20.00     0.011 C 
HETATM    3  C3  UNL     1     -33.846   8.000   4.666  1.00 20.00     0.010 C 
HETATM    4  C4  UNL     1     -32.553   5.960   2.858  1.00 20.00     0.101 C 
HETATM    5  C5  UNL     1     -32.818   8.259   3.547  1.00 20.00    -0.009 C 
HETATM    6  C6  UNL     1     -32.193   6.262   4.331  1.00 20.00     0.007 C 
HETATM    7  C7  UNL     1     -33.386   6.649   5.247  1.00 20.00    -0.013 C 
HETATM    8  C8  UNL     1     -33.141   7.304   2.368  1.00 20.00     0.003 C 
HETATM    9  C9  UNL     1     -34.512   5.643   5.406  1.00 20.00     0.010 C 
HETATM   10  C10 UNL     1     -32.503   7.765   1.060  1.00 20.00     0.011 C 
HETATM   11  N11 UNL     1     -34.144   3.907   2.489  1.00 20.00    -0.197 NA
ENDROOT
TORSDOF 0
