REMARK  0 active torsions:
REMARK  status: ('A' for Active; 'I' for Inactive)
ROOT
HETATM    1  C1  UNL     1     -34.512   4.529   5.223  1.00 20.00     0.184 C 
HETATM    2  C2  UNL     1     -34.475   6.479   5.878  1.00 20.00     0.184 C 
HETATM    3  C3  UNL     1     -34.776   5.858   4.516  1.00 20.00     0.101 C 
HETATM    4  O4  UNL     1     -34.485   5.179   6.516  1.00 20.00    -0.389 OA
HETATM    5  I5  UNL     1     -33.272   6.396   2.829  1.00 20.00    -0.080 I 
ENDROOT
TORSDOF 0
