REMARK  0 active torsions:
REMARK  status: ('A' for Active; 'I' for Inactive)
ROOT
HETATM    1  C1  UNL     1     -33.301   8.302   3.232  1.00 20.00     0.013 A 
HETATM    2  C2  UNL     1     -32.791   8.434   1.939  1.00 20.00     0.043 A 
HETATM    3  C3  UNL     1     -32.546   6.054   1.829  1.00 20.00     0.050 A 
HETATM    4  C4  UNL     1     -33.457   7.047   3.871  1.00 20.00    -0.020 A 
HETATM    5  C5  UNL     1     -33.073   5.907   3.131  1.00 20.00    -0.046 A 
HETATM    6  C6  UNL     1     -32.410   7.305   1.236  1.00 20.00     0.117 A 
HETATM    7  C7  UNL     1     -33.175   4.504   3.677  1.00 20.00     0.039 C 
HETATM    8  C8  UNL     1     -34.561   4.171   4.216  1.00 20.00     0.007 C 
HETATM    9  C9  UNL     1     -34.693   4.477   5.698  1.00 20.00     0.035 C 
HETATM   10  C10 UNL     1     -33.994   7.060   5.286  1.00 20.00     0.184 A 
HETATM   11  C11 UNL     1     -34.598   5.916   6.067  1.00 20.00     0.156 A 
HETATM   12  O12 UNL     1     -33.242   6.350   6.279  1.00 20.00    -0.370 OA
HETATM   13  F13 UNL     1     -31.917   7.412  -0.002  1.00 20.00    -0.206 F 
ENDROOT
TORSDOF 0
