REMARK  1 active torsions:
REMARK  status: ('A' for Active; 'I' for Inactive)
REMARK    1  A    between atoms: C1_1  and  C2_2 
ROOT
HETATM    1  C1  UNL     1     -33.806   5.634   3.476  1.00 20.00     0.346 C 
HETATM    2  O3  UNL     1     -33.936   4.431   3.307  1.00 20.00    -0.255 OA
HETATM    3  F4  UNL     1     -33.142   6.314   2.529  1.00 20.00    -0.160 F 
ENDROOT
BRANCH   1   4
HETATM    4  C2  UNL     1     -34.283   6.386   4.675  1.00 20.00     0.369 C 
HETATM    5  F5  UNL     1     -33.256   6.997   5.322  1.00 20.00    -0.222 F 
HETATM    6 CL6  UNL     1     -35.069   5.240   5.766  1.00 20.00    -0.078 Cl
ENDBRANCH   1   4
TORSDOF 1
