REMARK  1 active torsions:
REMARK  status: ('A' for Active; 'I' for Inactive)
REMARK    1  A    between atoms: C3_3  and  C4_4 
ROOT
HETATM    1  C1  UNL     1     -33.907   6.915   4.933  1.00 20.00     0.087 A 
HETATM    2  C2  UNL     1     -35.016   5.121   6.097  1.00 20.00     0.166 A 
HETATM    3  C3  UNL     1     -33.919   5.696   4.287  1.00 20.00     0.125 A 
HETATM    4  N5  UNL     1     -34.554   4.666   4.953  1.00 20.00    -0.249 NA
HETATM    5  S7  UNL     1     -34.722   6.777   6.435  1.00 20.00    -0.092 SA
ENDROOT
BRANCH   3   6
HETATM    6  C4  UNL     1     -33.321   5.467   3.002  1.00 20.00     0.271 C 
HETATM    7  O6  UNL     1     -33.377   4.323   2.482  1.00 20.00    -0.272 OA
HETATM    8 CL8  UNL     1     -32.489   6.766   2.108  1.00 20.00    -0.037 Cl
ENDBRANCH   3   6
TORSDOF 1
