REMARK  0 active torsions:
REMARK  status: ('A' for Active; 'I' for Inactive)
ROOT
HETATM    1  C1  UNL     1     -35.935   5.654   4.445  1.00 20.00     0.101 C 
HETATM    2  C2  UNL     1     -33.814   6.634   3.638  1.00 20.00     0.067 C 
HETATM    3  C3  UNL     1     -34.473   5.570   4.506  1.00 20.00     0.197 C 
HETATM    4  N4  UNL     1     -37.093   5.723   4.394  1.00 20.00    -0.194 NA
HETATM    5 CL5  UNL     1     -33.976   5.782   6.205  1.00 20.00    -0.085 Cl
HETATM    6 CL6  UNL     1     -33.987   3.947   3.946  1.00 20.00    -0.085 Cl
ENDROOT
TORSDOF 0
