REMARK  0 active torsions:
REMARK  status: ('A' for Active; 'I' for Inactive)
ROOT
HETATM    1  C1  UNL     1     -33.344   4.888   2.085  1.00 20.00     0.015 A 
HETATM    2  C2  UNL     1     -32.943   6.108   1.529  1.00 20.00     0.025 A 
HETATM    3  C3  UNL     1     -34.193   3.814   4.306  1.00 20.00     0.031 A 
HETATM    4  C4  UNL     1     -33.319   7.254   3.638  1.00 20.00     0.054 A 
HETATM    5  C5  UNL     1     -34.433   4.379   5.537  1.00 20.00     0.091 A 
HETATM    6  C6  UNL     1     -33.740   4.846   3.437  1.00 20.00    -0.008 A 
HETATM    7  C7  UNL     1     -33.718   6.028   4.181  1.00 20.00     0.045 A 
HETATM    8  C8  UNL     1     -32.931   7.272   2.296  1.00 20.00     0.036 A 
HETATM    9  C9  UNL     1     -34.274   6.648   6.550  1.00 20.00     0.155 C 
HETATM   10  N10 UNL     1     -34.144   5.714   5.452  1.00 20.00    -0.360 N 
HETATM   11 CL11 UNL     1     -32.432   8.758   1.579  1.00 20.00    -0.084 Cl
ENDROOT
TORSDOF 0
