REMARK  3 active torsions:
REMARK  status: ('A' for Active; 'I' for Inactive)
REMARK    1  A    between atoms: C1_1  and  C3_3 
REMARK    2  A    between atoms: C3_3  and  O9_9 
REMARK    3  A    between atoms: C7_7  and  O9_9 
ROOT
HETATM    1  C3  UNL     1     -33.456   7.068   5.234  1.00 20.00     0.282 C 
HETATM    2  O8  UNL     1     -32.369   7.566   5.483  1.00 20.00    -0.260 OA
ENDROOT
BRANCH   1   3
HETATM    3  C1  UNL     1     -34.485   6.711   6.234  1.00 20.00     0.077 C 
HETATM    4  C2  UNL     1     -34.896   5.441   6.346  1.00 20.00    -0.025 C 
HETATM    5  C4  UNL     1     -34.366   4.329   5.502  1.00 20.00     0.036 C 
ENDBRANCH   1   3
BRANCH   1   6
HETATM    6  O9  UNL     1     -33.943   6.741   4.006  1.00 20.00    -0.314 OA
BRANCH   6   7
HETATM    7  C7  UNL     1     -32.961   6.372   3.033  1.00 20.00     0.124 C 
HETATM    8  C5  UNL     1     -33.562   5.353   2.077  1.00 20.00     0.040 C 
HETATM    9  C6  UNL     1     -32.483   7.619   2.305  1.00 20.00     0.040 C 
ENDBRANCH   6   7
ENDBRANCH   1   6
TORSDOF 3
