REMARK  0 active torsions:
REMARK  status: ('A' for Active; 'I' for Inactive)
ROOT
HETATM    1  C1  UNL     1     -34.689   5.419   6.048  1.00 20.00     0.179 A 
HETATM    2  C2  UNL     1     -34.211   5.324   4.769  1.00 20.00    -0.007 A 
HETATM    3  C3  UNL     1     -33.727   6.622   4.491  1.00 20.00     0.070 A 
HETATM    4  C4  UNL     1     -34.176   4.204   3.799  1.00 20.00     0.043 C 
HETATM    5  C5  UNL     1     -33.081   7.005   3.211  1.00 20.00     0.062 C 
HETATM    6  C6  UNL     1     -33.208   4.514   2.640  1.00 20.00     0.005 C 
HETATM    7  C7  UNL     1     -33.365   5.956   2.119  1.00 20.00     0.006 C 
HETATM    8  N8  UNL     1     -33.885   7.455   5.523  1.00 20.00    -0.133 NA
HETATM    9  O9  UNL     1     -34.500   6.686   6.509  1.00 20.00    -0.225 OA
ENDROOT
TORSDOF 0
