REMARK  3 active torsions:
REMARK  status: ('A' for Active; 'I' for Inactive)
REMARK    1  A    between atoms: C3_3  and  C5_5 
REMARK    2  A    between atoms: C4_4  and  C6_6 
REMARK    3  A    between atoms: C5_5  and  C6_6 
ROOT
HETATM    1  C1  UNL     1     -33.057   7.225   2.776  1.00 20.00     0.087 C 
HETATM    2  C3  UNL     1     -33.226   6.585   4.033  1.00 20.00     0.093 C 
HETATM    3  N7  UNL     1     -32.917   7.744   1.747  1.00 20.00    -0.192 NA
ENDROOT
BRANCH   2   4
HETATM    4  C5  UNL     1     -33.689   7.250   5.101  1.00 20.00     0.011 C 
BRANCH   4   5
HETATM    5  C6  UNL     1     -33.874   6.630   6.395  1.00 20.00     0.011 C 
BRANCH   5   6
HETATM    6  C4  UNL     1     -34.360   5.391   6.548  1.00 20.00     0.093 C 
HETATM    7  C2  UNL     1     -34.729   4.595   5.431  1.00 20.00     0.087 C 
HETATM    8  N8  UNL     1     -35.031   3.941   4.520  1.00 20.00    -0.192 NA
ENDBRANCH   5   6
ENDBRANCH   4   5
ENDBRANCH   2   4
TORSDOF 3
