REMARK  0 active torsions:
REMARK  status: ('A' for Active; 'I' for Inactive)
ROOT
HETATM    1  C1  UNL     1     -33.511   7.339   5.557  1.00 20.00     0.086 C 
HETATM    2  C2  UNL     1     -34.359   5.519   2.418  1.00 20.00     0.017 C 
HETATM    3  C3  UNL     1     -32.873   5.266   4.268  1.00 20.00     0.049 C 
HETATM    4  C4  UNL     1     -32.860   5.329   2.716  1.00 20.00     0.020 C 
HETATM    5  C5  UNL     1     -34.444   6.817   3.256  1.00 20.00     0.055 C 
HETATM    6  C6  UNL     1     -32.257   6.668   2.322  1.00 20.00     0.155 A 
HETATM    7  C7  UNL     1     -33.315   7.663   2.664  1.00 20.00     0.158 A 
HETATM    8  C8  UNL     1     -33.986   6.289   4.649  1.00 20.00     0.132 C 
HETATM    9  N9  UNL     1     -33.136   8.168   6.276  1.00 20.00    -0.195 NA
HETATM   10  O10 UNL     1     -32.927   7.421   1.307  1.00 20.00    -0.374 OA
HETATM   11 CL11 UNL     1     -35.340   5.470   5.492  1.00 20.00    -0.102 Cl
ENDROOT
TORSDOF 0
