REMARK  3 active torsions:
REMARK  status: ('A' for Active; 'I' for Inactive)
REMARK    1  A    between atoms: C3_3  and  C7_7 
REMARK    2  A    between atoms: C4_4  and  C5_5 
REMARK    3  A    between atoms: C7_7  and  O9_9 
ROOT
HETATM    1  C1  UNL     1     -33.203   7.224   3.595  1.00 20.00     0.031 A 
HETATM    2  C2  UNL     1     -33.172   5.465   2.076  1.00 20.00     0.060 A 
HETATM    3  C3  UNL     1     -32.834   6.783   2.292  1.00 20.00    -0.027 A 
HETATM    4  C4  UNL     1     -33.809   6.227   4.327  1.00 20.00     0.043 A 
HETATM    5  S10 UNL     1     -33.931   4.765   3.443  1.00 20.00    -0.098 SA
ENDROOT
BRANCH   3   6
HETATM    6  C7  UNL     1     -32.165   7.642   1.287  1.00 20.00     0.206 C 
BRANCH   6   7
HETATM    7  O9  UNL     1     -33.107   8.555   0.729  1.00 20.00    -0.391 OA
HETATM    8  C6  UNL     1     -32.501   9.397  -0.240  1.00 20.00     0.201 C 
ENDBRANCH   6   7
ENDBRANCH   3   6
BRANCH   4   9
HETATM    9  C5  UNL     1     -34.315   6.276   5.660  1.00 20.00     0.277 C 
HETATM   10  O8  UNL     1     -34.853   5.311   6.242  1.00 20.00    -0.301 OA
ENDBRANCH   4   9
TORSDOF 3
