REMARK  1 active torsions:
REMARK  status: ('A' for Active; 'I' for Inactive)
REMARK    1  A    between atoms: C10_10  and  O12_12 
ROOT
HETATM    1  C1  UNL     1     -35.719   5.841   4.238  1.00 20.00     0.005 C 
HETATM    2  C2  UNL     1     -35.218   5.724   2.792  1.00 20.00     0.005 C 
HETATM    3  C3  UNL     1     -33.223   7.146   5.460  1.00 20.00     0.008 C 
HETATM    4  C4  UNL     1     -33.084   7.896   4.140  1.00 20.00     0.033 C 
HETATM    5  C5  UNL     1     -34.432   3.867   4.025  1.00 20.00     0.010 C 
HETATM    6  C6  UNL     1     -34.703   4.999   5.026  1.00 20.00    -0.010 C 
HETATM    7  C7  UNL     1     -33.971   4.834   2.924  1.00 20.00    -0.007 C 
HETATM    8  C8  UNL     1     -33.308   5.665   5.097  1.00 20.00    -0.004 C 
HETATM    9  C9  UNL     1     -32.795   5.534   3.645  1.00 20.00     0.023 C 
HETATM   10  C10 UNL     1     -32.333   6.928   3.233  1.00 20.00     0.125 C 
ENDROOT
BRANCH  10  11
HETATM   11  O12 UNL     1     -32.551   7.189   1.862  1.00 20.00    -0.390 OA
HETATM   12  C11 UNL     1     -32.571   8.586   1.584  1.00 20.00     0.202 C 
ENDBRANCH  10  11
TORSDOF 1
