REMARK  3 active torsions:
REMARK  status: ('A' for Active; 'I' for Inactive)
REMARK    1  A    between atoms: C2_2  and  C7_7 
REMARK    2  A    between atoms: C3_3  and  C8_8 
REMARK    3  A    between atoms: C8_8  and  C9_9 
ROOT
HETATM    1  C1  UNL     1     -34.007   5.119   3.024  1.00 20.00     0.095 C 
HETATM    2  C2  UNL     1     -33.594   6.068   4.016  1.00 20.00     0.024 C 
HETATM    3  C3  UNL     1     -32.723   7.058   3.698  1.00 20.00    -0.067 C 
HETATM    4  C4  UNL     1     -32.235   8.101   4.681  1.00 20.00     0.044 C 
HETATM    5  N10 UNL     1     -34.352   4.344   2.232  1.00 20.00    -0.192 NA
ENDROOT
BRANCH   2   6
HETATM    6  C7  UNL     1     -34.154   5.852   5.410  1.00 20.00     0.046 C 
HETATM    7  C5  UNL     1     -35.107   4.666   5.468  1.00 20.00     0.011 C 
ENDBRANCH   2   6
BRANCH   3   8
HETATM    8  C8  UNL     1     -32.107   7.211   2.317  1.00 20.00     0.034 C 
BRANCH   8   9
HETATM    9  C9  UNL     1     -32.912   8.161   1.426  1.00 20.00    -0.000 C 
HETATM   10  C6  UNL     1     -32.293   8.281   0.042  1.00 20.00     0.005 C 
ENDBRANCH   8   9
ENDBRANCH   3   8
TORSDOF 3
