REMARK  0 active torsions:
REMARK  status: ('A' for Active; 'I' for Inactive)
ROOT
HETATM    1  C1  UNL     1     -32.572   7.472   2.263  1.00 20.00     0.096 C 
HETATM    2  C2  UNL     1     -32.931   7.831   1.033  1.00 20.00     0.096 C 
HETATM    3 CL3  UNL     1     -32.833   5.897   2.881  1.00 20.00    -0.096 Cl
HETATM    4 CL4  UNL     1     -32.671   9.407   0.417  1.00 20.00    -0.096 Cl
ENDROOT
TORSDOF 0
