REMARK  0 active torsions:
REMARK  status: ('A' for Active; 'I' for Inactive)
ROOT
HETATM    1  C1  UNL     1     -32.890   7.073   2.792  1.00 20.00     0.086 C 
HETATM    2  C2  UNL     1     -34.745   7.068   5.764  1.00 20.00    -0.025 C 
HETATM    3  C3  UNL     1     -33.416   6.904   5.685  1.00 20.00    -0.023 C 
HETATM    4  C4  UNL     1     -34.361   4.827   5.369  1.00 20.00     0.020 C 
HETATM    5  C5  UNL     1     -35.118   6.117   3.506  1.00 20.00     0.050 C 
HETATM    6  C6  UNL     1     -35.380   5.917   5.021  1.00 20.00     0.011 C 
HETATM    7  C7  UNL     1     -33.165   5.651   4.868  1.00 20.00     0.046 C 
HETATM    8  C8  UNL     1     -33.572   5.920   3.392  1.00 20.00     0.133 C 
HETATM    9  N9  UNL     1     -32.350   7.984   2.318  1.00 20.00    -0.195 NA
HETATM   10 CL10 UNL     1     -33.187   4.506   2.362  1.00 20.00    -0.102 Cl
ENDROOT
TORSDOF 0
