REMARK  0 active torsions:
REMARK  status: ('A' for Active; 'I' for Inactive)
ROOT
HETATM    1  C1  UNL     1     -33.672   4.582   2.941  1.00 20.00     0.014 A 
HETATM    2  C2  UNL     1     -34.236   4.229   4.103  1.00 20.00     0.075 A 
HETATM    3  C3  UNL     1     -33.150   5.916   2.727  1.00 20.00    -0.035 A 
HETATM    4  C4  UNL     1     -33.226   6.819   3.723  1.00 20.00     0.018 A 
HETATM    5  C5  UNL     1     -34.330   5.226   5.206  1.00 20.00     0.245 A 
HETATM    6  C6  UNL     1     -32.552   6.230   1.383  1.00 20.00     0.040 C 
HETATM    7  C7  UNL     1     -32.694   8.221   3.602  1.00 20.00     0.057 C 
HETATM    8  C8  UNL     1     -32.353   7.731   1.152  1.00 20.00     0.005 C 
HETATM    9  C9  UNL     1     -31.777   8.409   2.391  1.00 20.00     0.006 C 
HETATM   10  N10 UNL     1     -33.803   6.476   4.928  1.00 20.00    -0.327 N 
HETATM   11  O11 UNL     1     -34.847   4.919   6.277  1.00 20.00    -0.268 OA
HETATM   12  H22 UNL     1     -33.844   7.184   5.656  1.00 20.00     0.169 HD
ENDROOT
TORSDOF 0
