REMARK  1 active torsions:
REMARK  status: ('A' for Active; 'I' for Inactive)
REMARK    1  A    between atoms: C1_1  and  C3_3 
ROOT
HETATM    1  C2  UNL     1     -33.033   5.900   2.317  1.00 20.00     0.019 C 
HETATM    2  C3  UNL     1     -34.418   6.397   3.930  1.00 20.00     0.070 C 
HETATM    3  C4  UNL     1     -33.975   5.068   3.227  1.00 20.00    -0.036 C 
HETATM    4  C5  UNL     1     -33.221   7.135   3.238  1.00 20.00    -0.036 C 
HETATM    5  C7  UNL     1     -35.113   4.398   2.453  1.00 20.00     0.015 C 
HETATM    6  C8  UNL     1     -33.235   4.040   4.084  1.00 20.00     0.015 C 
HETATM    7  C9  UNL     1     -33.658   8.388   2.474  1.00 20.00     0.015 C 
HETATM    8  C10 UNL     1     -31.996   7.437   4.103  1.00 20.00     0.015 C 
ENDROOT
BRANCH   2   9
HETATM    9  C1  UNL     1     -34.534   6.431   5.457  1.00 20.00     0.128 C 
HETATM   10  C6  UNL     1     -35.046   5.184   6.125  1.00 20.00     0.091 C 
HETATM   11  O11 UNL     1     -34.222   7.429   6.105  1.00 20.00    -0.298 OA
ENDBRANCH   2   9
TORSDOF 1
