REMARK  4 active torsions:
REMARK  status: ('A' for Active; 'I' for Inactive)
REMARK    1  A    between atoms: C1_1  and  O10_10 
REMARK    2  A    between atoms: C1_1  and  O11_11 
REMARK    3  A    between atoms: C7_7  and  O10_10 
REMARK    4  A    between atoms: C8_8  and  O11_11 
ROOT
HETATM    1  C1  UNL     1     -33.227   6.074   2.644  1.00 20.00     0.407 C 
HETATM    2  O9  UNL     1     -33.948   5.413   1.908  1.00 20.00    -0.229 OA
ENDROOT
BRANCH   1   3
HETATM    3  O10 UNL     1     -32.256   6.942   2.244  1.00 20.00    -0.293 OA
BRANCH   3   4
HETATM    4  C7  UNL     1     -32.483   7.587   0.987  1.00 20.00     0.126 C 
HETATM    5  C2  UNL     1     -33.272   8.867   1.216  1.00 20.00     0.040 C 
HETATM    6  C3  UNL     1     -31.146   7.859   0.314  1.00 20.00     0.040 C 
ENDBRANCH   3   4
ENDBRANCH   1   3
BRANCH   1   7
HETATM    7  O11 UNL     1     -33.257   6.069   4.007  1.00 20.00    -0.288 OA
BRANCH   7   8
HETATM    8  C8  UNL     1     -34.227   5.207   4.602  1.00 20.00     0.062 C 
HETATM    9  C4  UNL     1     -33.937   3.772   4.162  1.00 20.00     0.046 C 
HETATM   10  C5  UNL     1     -34.093   5.341   6.118  1.00 20.00     0.046 C 
HETATM   11  C6  UNL     1     -35.616   5.647   4.144  1.00 20.00     0.046 C 
ENDBRANCH   7   8
ENDBRANCH   1   7
TORSDOF 4
