REMARK  4 active torsions:
REMARK  status: ('A' for Active; 'I' for Inactive)
REMARK    1  A    between atoms: C6_6  and  C7_7 
REMARK    2  A    between atoms: C7_7  and  C9_9 
REMARK    3  A    between atoms: C8_8  and  C9_9 
REMARK    4  A    between atoms: C8_8  and  C10_10 
ROOT
HETATM    1  C1  UNL     1     -33.805   6.126   5.054  1.00 20.00     0.068 C 
HETATM    2  C4  UNL     1     -34.071   3.736   4.499  1.00 20.00     0.031 C 
HETATM    3  C5  UNL     1     -35.773   5.423   3.799  1.00 20.00     0.031 C 
HETATM    4  C10 UNL     1     -34.263   5.179   4.011  1.00 20.00     0.042 C 
HETATM    5  N11 UNL     1     -33.457   6.870   5.874  1.00 20.00    -0.196 NA
ENDROOT
BRANCH   4   6
HETATM    6  C8  UNL     1     -33.536   5.440   2.660  1.00 20.00     0.028 C 
BRANCH   6   7
HETATM    7  C9  UNL     1     -33.177   6.899   2.276  1.00 20.00    -0.017 C 
HETATM    8  C3  UNL     1     -31.989   7.455   3.067  1.00 20.00     0.010 C 
BRANCH   7   9
HETATM    9  C7  UNL     1     -32.849   7.015   0.766  1.00 20.00     0.004 C 
BRANCH   9  10
HETATM   10  C6  UNL     1     -33.052   8.418   0.188  1.00 20.00    -0.004 C 
HETATM   11  C2  UNL     1     -32.688   8.467  -1.289  1.00 20.00     0.005 C 
ENDBRANCH   9  10
ENDBRANCH   7   9
ENDBRANCH   6   7
ENDBRANCH   4   6
TORSDOF 4
