REMARK  3 active torsions:
REMARK  status: ('A' for Active; 'I' for Inactive)
REMARK    1  A    between atoms: C3_3  and  C8_8 
REMARK    2  A    between atoms: C8_8  and  C9_9 
REMARK    3  A    between atoms: C9_9  and  O11_11 
ROOT
HETATM    1  C1  UNL     1     -33.169   8.894   1.340  1.00 20.00     0.088 C 
HETATM    2  C2  UNL     1     -33.694   7.651   1.785  1.00 20.00     0.096 C 
HETATM    3  C3  UNL     1     -33.032   6.792   2.584  1.00 20.00    -0.071 C 
HETATM    4  C4  UNL     1     -31.658   7.049   3.145  1.00 20.00     0.044 C 
HETATM    5  N10 UNL     1     -32.747   9.911   0.971  1.00 20.00    -0.192 NA
ENDROOT
BRANCH   3   6
HETATM    6  C8  UNL     1     -33.695   5.490   3.009  1.00 20.00     0.071 C 
BRANCH   6   7
HETATM    7  C9  UNL     1     -34.462   5.522   4.351  1.00 20.00     0.056 C 
HETATM    8  C5  UNL     1     -35.842   6.155   4.131  1.00 20.00     0.046 C 
HETATM    9  C6  UNL     1     -34.621   4.134   4.977  1.00 20.00     0.046 C 
BRANCH   7  10
HETATM   10  O11 UNL     1     -33.754   6.362   5.265  1.00 20.00    -0.385 OA
HETATM   11  C7  UNL     1     -34.608   6.836   6.293  1.00 20.00     0.202 C 
ENDBRANCH   7  10
ENDBRANCH   6   7
ENDBRANCH   3   6
TORSDOF 3
