REMARK  4 active torsions:
REMARK  status: ('A' for Active; 'I' for Inactive)
REMARK    1  A    between atoms: C6_6  and  C7_7 
REMARK    2  A    between atoms: C7_7  and  C9_9 
REMARK    3  A    between atoms: C8_8  and  C9_9 
REMARK    4  A    between atoms: C8_8  and  C10_10 
ROOT
HETATM    1  C1  UNL     1     -34.286   6.197   5.345  1.00 20.00     0.068 C 
HETATM    2  C4  UNL     1     -33.013   4.377   4.271  1.00 20.00     0.031 C 
HETATM    3  C5  UNL     1     -35.456   4.670   3.846  1.00 20.00     0.031 C 
HETATM    4  C10 UNL     1     -34.127   5.418   4.095  1.00 20.00     0.042 C 
HETATM    5  N11 UNL     1     -34.420   6.802   6.326  1.00 20.00    -0.196 NA
ENDROOT
BRANCH   4   6
HETATM    6  C8  UNL     1     -33.865   6.355   2.881  1.00 20.00     0.028 C 
BRANCH   6   7
HETATM    7  C9  UNL     1     -32.411   6.810   2.591  1.00 20.00    -0.017 C 
HETATM    8  C3  UNL     1     -31.829   7.702   3.693  1.00 20.00     0.010 C 
BRANCH   7   9
HETATM    9  C7  UNL     1     -32.319   7.579   1.249  1.00 20.00     0.004 C 
BRANCH   9  10
HETATM   10  C6  UNL     1     -33.071   8.913   1.240  1.00 20.00    -0.004 C 
HETATM   11  C2  UNL     1     -32.919   9.626  -0.096  1.00 20.00     0.005 C 
ENDBRANCH   9  10
ENDBRANCH   7   9
ENDBRANCH   6   7
ENDBRANCH   4   6
TORSDOF 4
