REMARK  3 active torsions:
REMARK  status: ('A' for Active; 'I' for Inactive)
REMARK    1  A    between atoms: C7_7  and  C9_9 
REMARK    2  A    between atoms: C8_8  and  C9_9 
REMARK    3  A    between atoms: C9_9  and  O11_11 
ROOT
HETATM    1  C1  UNL     1     -34.446   4.238   3.127  1.00 20.00     0.027 C 
HETATM    2  C2  UNL     1     -33.393   5.219   2.622  1.00 20.00     0.011 C 
HETATM    3  C5  UNL     1     -34.578   4.322   4.641  1.00 20.00     0.167 C 
HETATM    4  C6  UNL     1     -33.833   6.571   4.690  1.00 20.00     0.174 C 
HETATM    5  C8  UNL     1     -33.658   6.625   3.171  1.00 20.00     0.039 C 
HETATM    6  O10 UNL     1     -34.872   5.658   5.049  1.00 20.00    -0.391 OA
ENDROOT
BRANCH   5   7
HETATM    7  C9  UNL     1     -32.544   7.589   2.778  1.00 20.00     0.128 C 
BRANCH   7   8
HETATM    8  C7  UNL     1     -32.383   7.679   1.269  1.00 20.00     0.015 A 
HETATM    9  C3  UNL     1     -33.294   8.561   0.461  1.00 20.00     0.007 A 
HETATM   10  C4  UNL     1     -31.850   8.935   0.638  1.00 20.00     0.007 A 
ENDBRANCH   7   8
BRANCH   7  11
HETATM   11  O11 UNL     1     -31.322   7.149   3.357  1.00 20.00    -0.395 OA
HETATM   12  H27 UNL     1     -30.648   7.806   3.119  1.00 20.00     0.210 HD
ENDBRANCH   7  11
ENDBRANCH   5   7
TORSDOF 3
