REMARK  0 active torsions:
REMARK  status: ('A' for Active; 'I' for Inactive)
ROOT
HETATM    1  C1  UNL     1     -32.855   8.493   0.957  1.00 20.00     0.065 C 
HETATM    2  C2  UNL     1     -35.301   5.781   4.310  1.00 20.00     0.032 C 
HETATM    3  C3  UNL     1     -34.362   6.676   5.098  1.00 20.00     0.037 C 
HETATM    4  C4  UNL     1     -33.018   8.049   3.397  1.00 20.00     0.056 C 
HETATM    5  C5  UNL     1     -34.348   4.832   3.604  1.00 20.00     0.273 C 
HETATM    6  C6  UNL     1     -33.291   6.240   1.911  1.00 20.00     0.292 C 
HETATM    7  C7  UNL     1     -32.541   7.557   2.039  1.00 20.00     0.123 C 
HETATM    8  C8  UNL     1     -33.116   6.767   4.225  1.00 20.00     0.224 C 
HETATM    9  N9  UNL     1     -33.103   9.235   0.100  1.00 20.00    -0.197 NA
HETATM   10  N10 UNL     1     -33.180   5.648   3.253  1.00 20.00     0.094 N 
ENDROOT
TORSDOF 0
