REMARK  0 active torsions:
REMARK  status: ('A' for Active; 'I' for Inactive)
ROOT
HETATM    1  C1  UNL     1     -32.882   7.752   1.620  1.00 20.00     0.065 C 
HETATM    2  C2  UNL     1     -34.431   4.687   5.388  1.00 20.00     0.032 C 
HETATM    3  C3  UNL     1     -34.970   4.406   3.998  1.00 20.00     0.037 C 
HETATM    4  C4  UNL     1     -33.296   5.410   2.331  1.00 20.00     0.056 C 
HETATM    5  C5  UNL     1     -34.537   6.198   5.491  1.00 20.00     0.273 C 
HETATM    6  C6  UNL     1     -32.787   7.014   3.990  1.00 20.00     0.292 C 
HETATM    7  C7  UNL     1     -32.476   6.675   2.538  1.00 20.00     0.123 C 
HETATM    8  C8  UNL     1     -34.548   5.624   3.184  1.00 20.00     0.224 C 
HETATM    9  N9  UNL     1     -33.202   8.601   0.896  1.00 20.00    -0.197 NA
HETATM   10  N10 UNL     1     -34.217   6.700   4.150  1.00 20.00     0.094 N 
ENDROOT
TORSDOF 0
