REMARK  0 active torsions:
REMARK  status: ('A' for Active; 'I' for Inactive)
ROOT
HETATM    1  C1  UNL     1     -33.848   4.792   3.053  1.00 20.00     0.015 A 
HETATM    2  C2  UNL     1     -33.380   5.568   2.068  1.00 20.00     0.083 A 
HETATM    3  C3  UNL     1     -34.065   5.368   4.335  1.00 20.00    -0.028 A 
HETATM    4  C4  UNL     1     -33.799   6.657   4.532  1.00 20.00     0.063 A 
HETATM    5  C5  UNL     1     -33.089   7.008   2.298  1.00 20.00     0.287 A 
HETATM    6  C6  UNL     1     -34.566   4.708   5.567  1.00 20.00     0.041 C 
HETATM    7  C7  UNL     1     -34.069   7.108   5.918  1.00 20.00     0.066 C 
HETATM    8  C8  UNL     1     -34.854   5.913   6.481  1.00 20.00     0.011 C 
HETATM    9  O9  UNL     1     -32.662   7.706   1.383  1.00 20.00    -0.260 OA
HETATM   10  O10 UNL     1     -33.311   7.522   3.556  1.00 20.00    -0.279 OA
ENDROOT
TORSDOF 0
