REMARK  0 active torsions:
REMARK  status: ('A' for Active; 'I' for Inactive)
ROOT
HETATM    1  C1  UNL     1     -33.358   7.189   3.336  1.00 20.00     0.053 A 
HETATM    2  C2  UNL     1     -33.048   5.291   1.905  1.00 20.00     0.159 A 
HETATM    3  C3  UNL     1     -33.880   6.316   4.269  1.00 20.00    -0.030 A 
HETATM    4  C4  UNL     1     -32.935   6.665   2.117  1.00 20.00     0.134 A 
HETATM    5  C5  UNL     1     -33.948   4.961   3.964  1.00 20.00     0.040 A 
HETATM    6  C6  UNL     1     -34.372   6.589   5.651  1.00 20.00     0.041 C 
HETATM    7  C7  UNL     1     -34.492   4.182   5.127  1.00 20.00     0.060 C 
HETATM    8  C8  UNL     1     -35.159   5.300   5.941  1.00 20.00     0.011 C 
HETATM    9  N9  UNL     1     -33.544   4.411   2.807  1.00 20.00    -0.262 NA
HETATM   10  F10 UNL     1     -32.426   7.462   1.171  1.00 20.00    -0.205 F 
ENDROOT
TORSDOF 0
