REMARK  2 active torsions:
REMARK  status: ('A' for Active; 'I' for Inactive)
REMARK    1  A    between atoms: C1_1  and  N9_9 
REMARK    2  A    between atoms: C8_8  and  N9_9 
ROOT
HETATM    1  C2  UNL     1     -35.513   5.218   4.375  1.00 20.00     0.005 C 
HETATM    2  C3  UNL     1     -34.606   4.946   3.167  1.00 20.00     0.007 C 
HETATM    3  C4  UNL     1     -33.289   4.838   5.136  1.00 20.00     0.011 C 
HETATM    4  C5  UNL     1     -34.035   7.107   5.087  1.00 20.00     0.030 C 
HETATM    5  C6  UNL     1     -34.520   5.690   5.450  1.00 20.00    -0.012 C 
HETATM    6  C7  UNL     1     -33.206   5.328   3.688  1.00 20.00     0.009 C 
HETATM    7  C8  UNL     1     -33.083   6.851   3.905  1.00 20.00     0.088 C 
ENDROOT
BRANCH   7   8
HETATM    8  N9  UNL     1     -33.395   7.637   2.746  1.00 20.00    -0.363 N 
HETATM    9  H23 UNL     1     -34.181   8.284   2.800  1.00 20.00     0.162 HD
BRANCH   8  10
HETATM   10  C1  UNL     1     -32.688   7.567   1.560  1.00 20.00     0.348 C 
HETATM   11  O10 UNL     1     -32.889   8.201   0.532  1.00 20.00    -0.284 OA
ENDBRANCH   8  10
ENDBRANCH   7   8
TORSDOF 2
