REMARK  0 active torsions:
REMARK  status: ('A' for Active; 'I' for Inactive)
ROOT
HETATM    1  C1  UNL     1     -33.408   5.047   2.173  1.00 20.00    -0.023 C 
HETATM    2  C2  UNL     1     -33.354   6.381   2.267  1.00 20.00    -0.083 C 
HETATM    3  C3  UNL     1     -34.351   5.668   5.571  1.00 20.00     0.132 C 
HETATM    4  C4  UNL     1     -34.052   4.418   3.367  1.00 20.00     0.040 C 
HETATM    5  C5  UNL     1     -33.566   6.898   5.939  1.00 20.00     0.079 C 
HETATM    6  C6  UNL     1     -32.932   7.270   4.607  1.00 20.00     0.017 C 
HETATM    7  C7  UNL     1     -33.961   6.869   3.547  1.00 20.00     0.025 C 
HETATM    8  C8  UNL     1     -34.661   5.612   4.095  1.00 20.00     0.067 C 
HETATM    9  C9  UNL     1     -32.766   7.322   1.279  1.00 20.00     0.043 C 
HETATM   10  O10 UNL     1     -34.727   4.831   6.382  1.00 20.00    -0.298 OA
ENDROOT
TORSDOF 0
