REMARK  1 active torsions:
REMARK  status: ('A' for Active; 'I' for Inactive)
REMARK    1  A    between atoms: C2_2  and  C9_9 
ROOT
HETATM    1  C1  UNL     1     -33.118   7.190   3.044  1.00 20.00     0.053 C 
HETATM    2  C2  UNL     1     -32.923   6.856   1.759  1.00 20.00    -0.072 C 
HETATM    3  C3  UNL     1     -33.738   6.228   3.990  1.00 20.00     0.149 C 
HETATM    4  C4  UNL     1     -33.247   5.490   1.210  1.00 20.00     0.035 C 
HETATM    5  C5  UNL     1     -34.228   4.903   3.452  1.00 20.00     0.083 C 
HETATM    6  C6  UNL     1     -33.355   4.429   2.302  1.00 20.00     0.012 C 
HETATM    7  O10 UNL     1     -33.898   6.547   5.167  1.00 20.00    -0.293 OA
ENDROOT
BRANCH   2   8
HETATM    8  C9  UNL     1     -32.363   7.841   0.774  1.00 20.00     0.014 A 
HETATM    9  C7  UNL     1     -33.146   8.112  -0.463  1.00 20.00     0.010 A 
HETATM   10  C8  UNL     1     -33.062   9.146   0.619  1.00 20.00     0.010 A 
ENDBRANCH   2   8
TORSDOF 1
