REMARK  2 active torsions:
REMARK  status: ('A' for Active; 'I' for Inactive)
REMARK    1  A    between atoms: C7_7  and  C8_8 
REMARK    2  A    between atoms: C9_9  and  O10_10 
ROOT
HETATM    1  C1  UNL     1     -33.442   7.382   5.633  1.00 20.00     0.003 C 
HETATM    2  C2  UNL     1     -32.561   7.406   4.385  1.00 20.00     0.005 C 
HETATM    3  C5  UNL     1     -34.083   6.014   5.840  1.00 20.00     0.032 C 
HETATM    4  C6  UNL     1     -33.972   5.582   3.355  1.00 20.00     0.036 C 
HETATM    5  C8  UNL     1     -33.332   6.958   3.136  1.00 20.00    -0.008 C 
HETATM    6  C9  UNL     1     -34.855   5.562   4.603  1.00 20.00     0.118 C 
ENDROOT
BRANCH   5   7
HETATM    7  C7  UNL     1     -32.414   6.938   1.915  1.00 20.00    -0.010 A 
HETATM    8  C3  UNL     1     -32.989   7.081   0.533  1.00 20.00     0.005 A 
HETATM    9  C4  UNL     1     -32.176   8.196   1.127  1.00 20.00     0.005 A 
ENDBRANCH   5   7
BRANCH   6  10
HETATM   10  O10 UNL     1     -35.337   4.241   4.827  1.00 20.00    -0.396 OA
HETATM   11  H26 UNL     1     -35.821   3.982   4.027  1.00 20.00     0.210 HD
ENDBRANCH   6  10
TORSDOF 2
