REMARK  1 active torsions:
REMARK  status: ('A' for Active; 'I' for Inactive)
REMARK    1  A    between atoms: C7_7  and  C8_8 
ROOT
HETATM    1  C1  UNL     1     -33.974   5.918   4.720  1.00 20.00     0.131 C 
HETATM    2  C2  UNL     1     -33.490   4.537   4.351  1.00 20.00     0.104 C 
HETATM    3  C3  UNL     1     -33.255   7.065   4.050  1.00 20.00     0.110 C 
HETATM    4  C6  UNL     1     -33.334   4.441   2.842  1.00 20.00     0.175 C 
HETATM    5  C8  UNL     1     -33.125   6.781   2.554  1.00 20.00     0.132 C 
HETATM    6  O9  UNL     1     -34.820   6.101   5.593  1.00 20.00    -0.298 OA
HETATM    7  O10 UNL     1     -32.511   5.501   2.351  1.00 20.00    -0.385 OA
ENDROOT
BRANCH   5   8
HETATM    8  C7  UNL     1     -32.287   7.824   1.874  1.00 20.00     0.015 A 
HETATM    9  C4  UNL     1     -32.456   8.091   0.404  1.00 20.00     0.007 A 
HETATM   10  C5  UNL     1     -32.910   9.111   1.410  1.00 20.00     0.007 A 
ENDBRANCH   5   8
TORSDOF 1
