REMARK  2 active torsions:
REMARK  status: ('A' for Active; 'I' for Inactive)
REMARK    1  A    between atoms: C4_4  and  O10_10 
REMARK    2  A    between atoms: C5_5  and  C8_8 
ROOT
HETATM    1  C1  UNL     1     -35.066   5.426   3.786  1.00 20.00     0.040 A 
HETATM    2  C2  UNL     1     -34.309   6.224   2.935  1.00 20.00     0.030 A 
HETATM    3  C3  UNL     1     -33.799   6.267   5.615  1.00 20.00     0.153 A 
HETATM    4  C4  UNL     1     -34.812   5.443   5.153  1.00 20.00     0.083 A 
HETATM    5  C5  UNL     1     -33.318   7.013   3.496  1.00 20.00     0.038 A 
HETATM    6  N9  UNL     1     -33.042   7.055   4.819  1.00 20.00    -0.262 NA
ENDROOT
BRANCH   5   7
HETATM    7  C8  UNL     1     -32.493   7.876   2.602  1.00 20.00     0.038 A 
HETATM    8  C6  UNL     1     -33.135   8.497   1.390  1.00 20.00     0.011 A 
HETATM    9  C7  UNL     1     -32.151   7.383   1.220  1.00 20.00     0.011 A 
ENDBRANCH   5   7
BRANCH   4  10
HETATM   10  O10 UNL     1     -35.535   4.677   6.007  1.00 20.00    -0.359 OA
HETATM   11  H19 UNL     1     -36.203   4.162   5.522  1.00 20.00     0.217 HD
ENDBRANCH   4  10
TORSDOF 2
