REMARK  2 active torsions:
REMARK  status: ('A' for Active; 'I' for Inactive)
REMARK    1  A    between atoms: C7_7  and  C8_8 
REMARK    2  A    between atoms: C9_9  and  O10_10 
ROOT
HETATM    1  C1  UNL     1     -33.733   3.822   3.195  1.00 20.00     0.003 C 
HETATM    2  C2  UNL     1     -32.943   5.030   2.699  1.00 20.00     0.005 C 
HETATM    3  C5  UNL     1     -33.971   3.885   4.704  1.00 20.00     0.032 C 
HETATM    4  C6  UNL     1     -33.846   6.410   4.615  1.00 20.00     0.036 C 
HETATM    5  C8  UNL     1     -33.615   6.351   3.097  1.00 20.00    -0.008 C 
HETATM    6  C9  UNL     1     -34.626   5.198   5.129  1.00 20.00     0.118 C 
ENDROOT
BRANCH   5   7
HETATM    7  C7  UNL     1     -32.778   7.542   2.633  1.00 20.00    -0.010 A 
HETATM    8  C3  UNL     1     -32.922   8.069   1.232  1.00 20.00     0.005 A 
HETATM    9  C4  UNL     1     -33.428   8.876   2.394  1.00 20.00     0.005 A 
ENDBRANCH   5   7
BRANCH   6  10
HETATM   10  O10 UNL     1     -35.959   5.230   4.623  1.00 20.00    -0.396 OA
HETATM   11  H26 UNL     1     -36.417   4.467   5.007  1.00 20.00     0.210 HD
ENDBRANCH   6  10
TORSDOF 2
