REMARK  0 active torsions:
REMARK  status: ('A' for Active; 'I' for Inactive)
ROOT
HETATM    1  C1  UNL     1     -35.777   5.613   4.127  1.00 20.00     0.132 C 
HETATM    2  C2  UNL     1     -34.915   4.356   4.116  1.00 20.00     0.084 C 
HETATM    3  C3  UNL     1     -34.511   6.767   5.836  1.00 20.00     0.013 C 
HETATM    4  C4  UNL     1     -33.591   5.515   5.927  1.00 20.00     0.006 C 
HETATM    5  C5  UNL     1     -32.421   7.136   3.364  1.00 20.00     0.011 A 
HETATM    6  C6  UNL     1     -33.237   6.468   2.279  1.00 20.00     0.011 A 
HETATM    7  C7  UNL     1     -34.870   6.825   4.339  1.00 20.00     0.064 C 
HETATM    8  C8  UNL     1     -33.539   4.991   4.466  1.00 20.00     0.002 C 
HETATM    9  C9  UNL     1     -33.611   6.295   3.723  1.00 20.00    -0.026 A 
HETATM   10  O10 UNL     1     -36.991   5.643   4.017  1.00 20.00    -0.298 OA
ENDROOT
TORSDOF 0
