REMARK  0 active torsions:
REMARK  status: ('A' for Active; 'I' for Inactive)
ROOT
HETATM    1  C1  UNL     1     -35.798   5.522   4.072  1.00 20.00     0.005 C 
HETATM    2  C2  UNL     1     -33.895   4.353   5.188  1.00 20.00     0.005 C 
HETATM    3  C3  UNL     1     -35.354   6.853   4.702  1.00 20.00     0.008 C 
HETATM    4  C4  UNL     1     -33.445   5.681   5.824  1.00 20.00     0.008 C 
HETATM    5  C5  UNL     1     -33.587   5.338   2.898  1.00 20.00     0.045 C 
HETATM    6  C6  UNL     1     -31.877   7.305   3.198  1.00 20.00     0.207 A 
HETATM    7  C7  UNL     1     -34.581   4.609   3.831  1.00 20.00    -0.012 C 
HETATM    8  C8  UNL     1     -33.828   6.860   4.910  1.00 20.00     0.022 C 
HETATM    9  C9  UNL     1     -33.171   6.621   3.570  1.00 20.00     0.086 A 
HETATM   10  O10 UNL     1     -33.142   7.766   2.705  1.00 20.00    -0.375 OA
ENDROOT
TORSDOF 0
