REMARK  0 active torsions:
REMARK  status: ('A' for Active; 'I' for Inactive)
ROOT
HETATM    1  C1  UNL     1     -32.885   6.892   2.695  1.00 20.00     0.136 C 
HETATM    2  C2  UNL     1     -32.538   4.365   2.304  1.00 20.00     0.018 A 
HETATM    3  C3  UNL     1     -33.267   7.932   5.155  1.00 20.00     0.018 A 
HETATM    4  C4  UNL     1     -33.213   4.275   5.515  1.00 20.00     0.011 A 
HETATM    5  C5  UNL     1     -33.382   5.600   2.132  1.00 20.00     0.060 A 
HETATM    6  C6  UNL     1     -32.736   6.968   4.152  1.00 20.00     0.060 A 
HETATM    7  C7  UNL     1     -33.923   4.396   2.899  1.00 20.00     0.002 A 
HETATM    8  C8  UNL     1     -34.089   6.736   4.831  1.00 20.00     0.002 A 
HETATM    9  C9  UNL     1     -34.222   4.204   4.402  1.00 20.00    -0.005 A 
HETATM   10  C10 UNL     1     -34.259   5.353   5.412  1.00 20.00    -0.005 A 
HETATM   11  O11 UNL     1     -32.582   7.830   1.971  1.00 20.00    -0.297 OA
ENDROOT
TORSDOF 0
