REMARK  1 active torsions:
REMARK  status: ('A' for Active; 'I' for Inactive)
REMARK    1  A    between atoms: C11_11  and  C12_12 
ROOT
HETATM    1  C1  UNL     1     -35.600   5.511   5.520  1.00 20.00     0.009 C 
HETATM    2  C2  UNL     1     -33.689   3.888   5.464  1.00 20.00     0.009 C 
HETATM    3  C3  UNL     1     -35.208   4.107   3.480  1.00 20.00     0.009 C 
HETATM    4  C4  UNL     1     -33.242   6.355   5.396  1.00 20.00     0.017 C 
HETATM    5  C5  UNL     1     -34.764   6.574   3.408  1.00 20.00     0.017 C 
HETATM    6  C6  UNL     1     -32.849   4.948   3.351  1.00 20.00     0.017 C 
HETATM    7  C8  UNL     1     -34.154   5.261   5.978  1.00 20.00    -0.013 C 
HETATM    8  C9  UNL     1     -35.680   5.480   3.984  1.00 20.00    -0.013 C 
HETATM    9  C10 UNL     1     -33.759   3.849   3.928  1.00 20.00    -0.013 C 
HETATM   10  C12 UNL     1     -33.300   6.341   3.850  1.00 20.00    -0.011 C 
ENDROOT
BRANCH  10  11
HETATM   11  C11 UNL     1     -32.403   7.417   3.281  1.00 20.00     0.153 A 
HETATM   12  C7  UNL     1     -32.875   8.839   3.158  1.00 20.00     0.201 A 
HETATM   13  O13 UNL     1     -32.838   7.953   2.028  1.00 20.00    -0.380 OA
ENDBRANCH  10  11
TORSDOF 1
