REMARK  2 active torsions:
REMARK  status: ('A' for Active; 'I' for Inactive)
REMARK    1  A    between atoms: C8_8  and  C9_9 
REMARK    2  A    between atoms: C9_9  and  N11_11 
ROOT
HETATM    1  C1  UNL     1     -33.584   4.510   2.073  1.00 20.00     0.096 C 
HETATM    2  C9  UNL     1     -32.996   5.524   2.958  1.00 20.00     0.332 C 
HETATM    3  N10 UNL     1     -34.048   3.706   1.376  1.00 20.00    -0.195 NA
ENDROOT
BRANCH   2   4
HETATM    4  C8  UNL     1     -32.562   6.752   2.169  1.00 20.00     0.033 A 
HETATM    5  C4  UNL     1     -32.435   6.686   0.672  1.00 20.00     0.008 A 
HETATM    6  C5  UNL     1     -33.548   7.479   1.298  1.00 20.00     0.008 A 
ENDBRANCH   2   4
BRANCH   2   7
HETATM    7  N11 UNL     1     -33.958   5.896   4.002  1.00 20.00     0.106 N 
HETATM    8  C6  UNL     1     -34.325   4.731   4.809  1.00 20.00     0.274 C 
HETATM    9  C2  UNL     1     -34.917   5.358   6.063  1.00 20.00     0.032 C 
HETATM   10  C3  UNL     1     -34.284   6.743   6.153  1.00 20.00     0.032 C 
HETATM   11  C7  UNL     1     -33.358   6.837   4.950  1.00 20.00     0.274 C 
ENDBRANCH   2   7
TORSDOF 2
