REMARK  1 active torsions:
REMARK  status: ('A' for Active; 'I' for Inactive)
REMARK    1  A    between atoms: C5_5  and  C9_9 
ROOT
HETATM    1  C1  UNL     1     -34.266   4.939   3.464  1.00 20.00     0.133 C 
HETATM    2  C2  UNL     1     -35.110   5.894   4.281  1.00 20.00     0.093 C 
HETATM    3  C3  UNL     1     -33.393   5.515   2.354  1.00 20.00     0.065 C 
HETATM    4  C4  UNL     1     -34.296   7.029   4.898  1.00 20.00     0.050 C 
HETATM    5  C5  UNL     1     -33.632   7.024   2.157  1.00 20.00     0.058 C 
HETATM    6  C6  UNL     1     -31.934   5.117   2.591  1.00 20.00     0.019 C 
HETATM    7  C7  UNL     1     -33.356   6.529   5.995  1.00 20.00     0.022 C 
HETATM    8  O10 UNL     1     -34.312   3.725   3.674  1.00 20.00    -0.298 OA
HETATM    9  S11 UNL     1     -33.333   7.998   3.678  1.00 20.00    -0.159 SA
ENDROOT
BRANCH   5  10
HETATM   10  C9  UNL     1     -32.792   7.619   1.027  1.00 20.00     0.011 C 
HETATM   11  C8  UNL     1     -33.053   9.079   0.855  1.00 20.00     0.006 C 
ENDBRANCH   5  10
TORSDOF 1
