REMARK  0 active torsions:
REMARK  status: ('A' for Active; 'I' for Inactive)
ROOT
HETATM    1  C1  UNL     1     -32.366   7.373   1.773  1.00 20.00     0.064 C 
HETATM    2  C2  UNL     1     -32.824   5.009   2.317  1.00 20.00     0.045 C 
HETATM    3  C3  UNL     1     -33.414   6.818   3.941  1.00 20.00     0.056 C 
HETATM    4  C4  UNL     1     -33.709   4.072   3.125  1.00 20.00     0.170 C 
HETATM    5  C5  UNL     1     -33.295   6.458   2.456  1.00 20.00     0.097 C 
HETATM    6  C6  UNL     1     -34.251   5.793   4.732  1.00 20.00     0.055 C 
HETATM    7  C7  UNL     1     -34.067   6.045   6.235  1.00 20.00     0.045 C 
HETATM    8  C8  UNL     1     -35.749   5.895   4.409  1.00 20.00     0.045 C 
HETATM    9  N9  UNL     1     -31.634   8.095   1.234  1.00 20.00    -0.197 NA
HETATM   10  O10 UNL     1     -33.768   4.462   4.495  1.00 20.00    -0.381 OA
ENDROOT
TORSDOF 0
