REMARK  1 active torsions:
REMARK  status: ('A' for Active; 'I' for Inactive)
REMARK    1  A    between atoms: N5_5  and  N6_6 
ROOT
HETATM    1  C1  UNL     1     -32.654   7.138   2.256  1.00 20.00     0.130 C 
HETATM    2  C2  UNL     1     -33.409   4.840   2.256  1.00 20.00     0.130 C 
HETATM    3  N5  UNL     1     -32.978   5.971   3.073  1.00 20.00    -0.259 NA
ENDROOT
BRANCH   3   4
HETATM    4  N6  UNL     1     -33.908   6.359   4.120  1.00 20.00    -0.259 NA
HETATM    5  C3  UNL     1     -33.174   6.998   5.208  1.00 20.00     0.130 C 
HETATM    6  C4  UNL     1     -34.769   5.282   4.605  1.00 20.00     0.130 C 
ENDBRANCH   3   4
TORSDOF 1
