REMARK  3 active torsions:
REMARK  status: ('A' for Active; 'I' for Inactive)
REMARK    1  A    between atoms: C6_6  and  C9_9 
REMARK    2  A    between atoms: C7_7  and  C9_9 
REMARK    3  A    between atoms: C8_8  and  O10_10 
ROOT
HETATM    1  C1  UNL     1     -34.371   4.786   3.092  1.00 20.00     0.003 C 
HETATM    2  C2  UNL     1     -33.617   5.425   1.926  1.00 20.00     0.007 C 
HETATM    3  C5  UNL     1     -34.063   5.638   4.323  1.00 20.00     0.032 C 
HETATM    4  C7  UNL     1     -32.568   6.316   2.585  1.00 20.00     0.015 C 
HETATM    5  C8  UNL     1     -33.319   6.860   3.797  1.00 20.00     0.122 C 
ENDROOT
BRANCH   4   6
HETATM    6  C9  UNL     1     -32.042   7.405   1.663  1.00 20.00     0.011 C 
BRANCH   6   7
HETATM    7  C6  UNL     1     -33.152   8.335   1.233  1.00 20.00    -0.014 A 
HETATM    8  C3  UNL     1     -33.479   9.554   2.050  1.00 20.00     0.005 A 
HETATM    9  C4  UNL     1     -32.829   9.705   0.703  1.00 20.00     0.005 A 
ENDBRANCH   6   7
ENDBRANCH   4   6
BRANCH   5  10
HETATM   10  O10 UNL     1     -32.425   7.380   4.762  1.00 20.00    -0.395 OA
HETATM   11  H26 UNL     1     -32.956   7.629   5.539  1.00 20.00     0.210 HD
ENDBRANCH   5  10
TORSDOF 3
