REMARK  0 active torsions:
REMARK  status: ('A' for Active; 'I' for Inactive)
ROOT
HETATM    1  C1  UNL     1     -34.745   5.770   6.321  1.00 20.00     0.032 C 
HETATM    2  C2  UNL     1     -33.137   5.779   2.303  1.00 20.00     0.032 C 
HETATM    3  C3  UNL     1     -34.841   4.680   5.273  1.00 20.00     0.109 C 
HETATM    4  C4  UNL     1     -33.672   6.671   5.745  1.00 20.00     0.109 C 
HETATM    5  C5  UNL     1     -33.926   4.685   2.993  1.00 20.00     0.109 C 
HETATM    6  C6  UNL     1     -32.761   6.679   3.463  1.00 20.00     0.109 C 
HETATM    7  N7  UNL     1     -34.669   5.411   4.019  1.00 20.00    -0.250 NA
HETATM    8  N8  UNL     1     -33.950   6.640   4.311  1.00 20.00    -0.250 NA
ENDROOT
TORSDOF 0
