REMARK  0 active torsions:
REMARK  status: ('A' for Active; 'I' for Inactive)
ROOT
HETATM    1  C1  UNL     1     -34.492   5.403   6.268  1.00 20.00     0.000 C 
HETATM    2  C2  UNL     1     -33.722   6.632   5.789  1.00 20.00     0.003 C 
HETATM    3  C3  UNL     1     -34.387   4.257   5.264  1.00 20.00     0.003 C 
HETATM    4  C4  UNL     1     -34.169   7.071   4.392  1.00 20.00     0.044 C 
HETATM    5  C5  UNL     1     -34.841   4.695   3.872  1.00 20.00     0.044 C 
HETATM    6  C6  UNL     1     -32.311   7.690   1.523  1.00 20.00     0.032 C 
HETATM    7  C7  UNL     1     -33.800   7.480   1.474  1.00 20.00     0.112 C 
HETATM    8  C8  UNL     1     -31.846   6.687   2.545  1.00 20.00     0.112 C 
HETATM    9  C9  UNL     1     -34.064   5.921   3.410  1.00 20.00     0.095 A 
HETATM   10  N10 UNL     1     -34.058   6.128   1.957  1.00 20.00    -0.223 NA
HETATM   11  N11 UNL     1     -32.862   5.644   2.617  1.00 20.00    -0.223 NA
ENDROOT
TORSDOF 0
