REMARK  0 active torsions:
REMARK  status: ('A' for Active; 'I' for Inactive)
ROOT
HETATM    1  C1  UNL     1     -33.841   6.602   6.444  1.00 20.00    -0.029 A 
HETATM    2  C2  UNL     1     -33.554   7.163   5.265  1.00 20.00    -0.018 A 
HETATM    3  C3  UNL     1     -33.726   5.460   3.428  1.00 20.00     0.135 A 
HETATM    4  C4  UNL     1     -34.927   5.571   6.374  1.00 20.00     0.033 A 
HETATM    5  C5  UNL     1     -34.671   4.396   4.009  1.00 20.00     0.084 A 
HETATM    6  C6  UNL     1     -34.406   6.596   4.210  1.00 20.00     0.082 A 
HETATM    7  C7  UNL     1     -35.302   5.515   4.887  1.00 20.00     0.011 A 
HETATM    8  O8  UNL     1     -32.793   5.413   2.652  1.00 20.00    -0.297 OA
ENDROOT
TORSDOF 0
