REMARK  2 active torsions:
REMARK  status: ('A' for Active; 'I' for Inactive)
REMARK    1  A    between atoms: C6_6  and  N9_9 
REMARK    2  A    between atoms: C7_7  and  N9_9 
ROOT
HETATM    1  C1  UNL     1     -34.228   6.381   5.216  1.00 20.00     0.100 C 
HETATM    2  C4  UNL     1     -33.904   4.627   3.518  1.00 20.00     0.065 C 
HETATM    3  C5  UNL     1     -36.188   5.571   3.971  1.00 20.00     0.065 C 
HETATM    4  C7  UNL     1     -34.690   5.881   3.908  1.00 20.00     0.237 C 
HETATM    5  N8  UNL     1     -33.864   6.773   6.246  1.00 20.00    -0.195 NA
ENDROOT
BRANCH   4   6
HETATM    6  N9  UNL     1     -34.465   6.897   2.896  1.00 20.00     0.110 N 
HETATM    7  H23 UNL     1     -35.062   6.712   2.088  1.00 20.00     0.318 HD
BRANCH   6   8
HETATM    8  C6  UNL     1     -33.072   6.910   2.464  1.00 20.00     0.214 C 
HETATM    9  C2  UNL     1     -32.180   7.186   3.665  1.00 20.00     0.042 C 
HETATM   10  C3  UNL     1     -32.902   7.967   1.382  1.00 20.00     0.042 C 
ENDBRANCH   6   8
ENDBRANCH   4   6
TORSDOF 2
