REMARK  0 active torsions:
REMARK  status: ('A' for Active; 'I' for Inactive)
ROOT
HETATM    1  C1  UNL     1     -32.893   5.975   2.188  1.00 20.00     0.086 C 
HETATM    2  C2  UNL     1     -34.009   5.070   2.627  1.00 20.00     0.055 C 
HETATM    3  C3  UNL     1     -34.804   5.635   6.388  1.00 20.00     0.030 C 
HETATM    4  C4  UNL     1     -35.129   5.126   4.977  1.00 20.00     0.010 C 
HETATM    5  C5  UNL     1     -34.217   7.056   6.382  1.00 20.00     0.272 C 
HETATM    6  C6  UNL     1     -33.907   5.350   4.107  1.00 20.00     0.045 C 
HETATM    7  C7  UNL     1     -33.531   6.829   4.098  1.00 20.00     0.345 C 
HETATM    8  N8  UNL     1     -32.548   6.936   2.994  1.00 20.00    -0.270 NA
HETATM    9  N9  UNL     1     -33.097   7.216   5.439  1.00 20.00     0.108 N 
HETATM   10  H21 UNL     1     -32.805   8.193   5.430  1.00 20.00     0.318 HD
ENDROOT
TORSDOF 0
