REMARK  5 active torsions:
REMARK  status: ('A' for Active; 'I' for Inactive)
REMARK    1  A    between atoms: C5_5  and  C7_7 
REMARK    2  A    between atoms: C6_6  and  C8_8 
REMARK    3  A    between atoms: C6_6  and  C9_9 
REMARK    4  A    between atoms: C7_7  and  O11_11 
REMARK    5  A    between atoms: C9_9  and  O11_11 
ROOT
HETATM    1  C1  UNL     1     -32.772   8.532   0.015  1.00 20.00     0.061 C 
HETATM    2  C5  UNL     1     -31.621   7.937   0.709  1.00 20.00     0.150 C 
HETATM    3  N10 UNL     1     -33.680   9.002  -0.533  1.00 20.00    -0.197 NA
ENDROOT
BRANCH   2   4
HETATM    4  C7  UNL     1     -31.995   7.465   2.107  1.00 20.00     0.182 C 
BRANCH   4   5
HETATM    5  O11 UNL     1     -33.008   6.476   2.020  1.00 20.00    -0.385 OA
BRANCH   5   6
HETATM    6  C9  UNL     1     -33.387   6.008   3.316  1.00 20.00     0.117 C 
HETATM    7  C4  UNL     1     -34.344   7.017   3.934  1.00 20.00     0.039 C 
BRANCH   6   8
HETATM    8  C6  UNL     1     -34.003   4.615   3.134  1.00 20.00     0.035 C 
BRANCH   8   9
HETATM    9  C8  UNL     1     -33.974   3.700   4.371  1.00 20.00    -0.020 C 
HETATM   10  C2  UNL     1     -34.730   4.299   5.557  1.00 20.00     0.009 C 
HETATM   11  C3  UNL     1     -34.568   2.333   4.017  1.00 20.00     0.009 C 
ENDBRANCH   8   9
ENDBRANCH   6   8
ENDBRANCH   5   6
ENDBRANCH   4   5
ENDBRANCH   2   4
TORSDOF 5
