REMARK  2 active torsions:
REMARK  status: ('A' for Active; 'I' for Inactive)
REMARK    1  A    between atoms: C2_2  and  C3_3 
REMARK    2  A    between atoms: C2_2  and  N4_4 
ROOT
HETATM    1  C1  UNL     1     -32.610   7.757   1.925  1.00 20.00     0.157 C 
HETATM    2  N4  UNL     1     -32.395   7.055   2.844  1.00 20.00    -0.267 NA
HETATM    3  S8  UNL     1     -32.882   8.723   0.689  1.00 20.00    -0.055 SA
ENDROOT
BRANCH   2   4
HETATM    4  C2  UNL     1     -33.281   5.898   2.958  1.00 20.00     0.267 C 
BRANCH   4   5
HETATM    5  C3  UNL     1     -34.030   5.972   4.264  1.00 20.00     0.405 C 
HETATM    6  F5  UNL     1     -33.168   5.967   5.305  1.00 20.00    -0.169 F 
HETATM    7  F6  UNL     1     -34.862   4.920   4.416  1.00 20.00    -0.169 F 
HETATM    8  F7  UNL     1     -34.764   7.103   4.347  1.00 20.00    -0.169 F 
ENDBRANCH   4   5
ENDBRANCH   2   4
TORSDOF 2
