REMARK  0 active torsions:
REMARK  status: ('A' for Active; 'I' for Inactive)
ROOT
HETATM    1  C1  UNL     1     -33.249   5.594   2.234  1.00 20.00     0.061 A 
HETATM    2  C2  UNL     1     -32.981   7.778   4.014  1.00 20.00     0.053 A 
HETATM    3  C3  UNL     1     -33.593   5.501   3.570  1.00 20.00     0.019 A 
HETATM    4  C4  UNL     1     -33.468   6.561   4.460  1.00 20.00    -0.041 A 
HETATM    5  C5  UNL     1     -32.758   6.819   1.783  1.00 20.00     0.155 A 
HETATM    6  C6  UNL     1     -32.625   7.904   2.667  1.00 20.00     0.155 A 
HETATM    7  C7  UNL     1     -34.123   4.358   4.296  1.00 20.00     0.160 A 
HETATM    8  C8  UNL     1     -33.904   6.209   5.846  1.00 20.00     0.047 A 
HETATM    9  C9  UNL     1     -34.341   4.738   5.741  1.00 20.00     0.088 A 
HETATM   10  O10 UNL     1     -34.347   3.272   3.794  1.00 20.00    -0.292 OA
HETATM   11  F11 UNL     1     -32.410   6.965   0.498  1.00 20.00    -0.203 F 
HETATM   12  F12 UNL     1     -32.152   9.072   2.212  1.00 20.00    -0.203 F 
ENDROOT
TORSDOF 0
