REMARK  0 active torsions:
REMARK  status: ('A' for Active; 'I' for Inactive)
ROOT
HETATM    1  C1  UNL     1     -33.173   8.043   4.450  1.00 20.00     0.012 A 
HETATM    2  C2  UNL     1     -33.012   8.969   3.420  1.00 20.00     0.024 A 
HETATM    3  C3  UNL     1     -32.871   7.171   1.808  1.00 20.00     0.031 A 
HETATM    4  C4  UNL     1     -33.188   6.671   4.175  1.00 20.00    -0.021 A 
HETATM    5  C5  UNL     1     -33.033   6.227   2.830  1.00 20.00    -0.048 A 
HETATM    6  C6  UNL     1     -32.864   8.534   2.103  1.00 20.00     0.034 A 
HETATM    7  C7  UNL     1     -32.988   4.731   2.504  1.00 20.00     0.039 C 
HETATM    8  C8  UNL     1     -34.253   3.885   2.813  1.00 20.00     0.007 C 
HETATM    9  C9  UNL     1     -34.589   3.674   4.312  1.00 20.00     0.035 C 
HETATM   10  C10 UNL     1     -33.386   5.626   5.223  1.00 20.00     0.184 A 
HETATM   11  C11 UNL     1     -34.768   5.007   4.924  1.00 20.00     0.156 A 
HETATM   12  O12 UNL     1     -34.400   5.442   6.210  1.00 20.00    -0.370 OA
HETATM   13 CL13 UNL     1     -32.665   9.685   0.838  1.00 20.00    -0.084 Cl
ENDROOT
TORSDOF 0
