REMARK  0 active torsions:
REMARK  status: ('A' for Active; 'I' for Inactive)
ROOT
HETATM    1  C1  UNL     1     -33.213   5.326   1.563  1.00 20.00     0.012 A 
HETATM    2  C2  UNL     1     -33.093   6.433   0.722  1.00 20.00     0.024 A 
HETATM    3  C3  UNL     1     -33.005   7.883   2.645  1.00 20.00     0.031 A 
HETATM    4  C4  UNL     1     -33.232   5.469   2.961  1.00 20.00    -0.021 A 
HETATM    5  C5  UNL     1     -33.119   6.775   3.499  1.00 20.00    -0.048 A 
HETATM    6  C6  UNL     1     -32.992   7.710   1.263  1.00 20.00     0.034 A 
HETATM    7  C7  UNL     1     -33.120   6.976   4.997  1.00 20.00     0.039 C 
HETATM    8  C8  UNL     1     -34.477   6.733   5.675  1.00 20.00     0.007 C 
HETATM    9  C9  UNL     1     -35.246   5.490   5.214  1.00 20.00     0.035 C 
HETATM   10  C10 UNL     1     -33.379   4.260   3.855  1.00 20.00     0.184 A 
HETATM   11  C11 UNL     1     -34.358   4.304   5.013  1.00 20.00     0.156 A 
HETATM   12  O12 UNL     1     -34.632   3.552   3.829  1.00 20.00    -0.370 OA
HETATM   13 CL13 UNL     1     -32.848   9.076   0.226  1.00 20.00    -0.084 Cl
ENDROOT
TORSDOF 0
