REMARK  0 active torsions:
REMARK  status: ('A' for Active; 'I' for Inactive)
ROOT
HETATM    1  C1  UNL     1     -33.154   4.738   2.299  1.00 20.00     0.009 A 
HETATM    2  C2  UNL     1     -32.729   5.793   1.492  1.00 20.00     0.019 A 
HETATM    3  C3  UNL     1     -33.446   7.416   3.159  1.00 20.00     0.029 A 
HETATM    4  C4  UNL     1     -33.722   5.039   3.526  1.00 20.00    -0.047 A 
HETATM    5  C5  UNL     1     -33.872   6.371   3.966  1.00 20.00    -0.019 A 
HETATM    6  C6  UNL     1     -32.874   7.122   1.918  1.00 20.00     0.011 A 
HETATM    7  C7  UNL     1     -34.242   4.059   4.555  1.00 20.00     0.074 A 
HETATM    8  C8  UNL     1     -34.501   6.409   5.317  1.00 20.00     0.185 A 
HETATM    9  C9  UNL     1     -34.787   4.954   5.651  1.00 20.00     0.160 A 
HETATM   10  O10 UNL     1     -33.832   5.721   6.387  1.00 20.00    -0.370 OA
HETATM   11 BR11 UNL     1     -32.285   8.531   0.802  1.00 20.00    -0.051 Br
ENDROOT
TORSDOF 0
