REMARK  0 active torsions:
REMARK  status: ('A' for Active; 'I' for Inactive)
ROOT
HETATM    1  C1  UNL     1     -33.430   4.667   2.198  1.00 20.00     0.009 A 
HETATM    2  C2  UNL     1     -33.197   5.788   1.401  1.00 20.00     0.024 A 
HETATM    3  C3  UNL     1     -33.488   7.264   3.315  1.00 20.00     0.034 A 
HETATM    4  C4  UNL     1     -33.687   4.863   3.546  1.00 20.00    -0.047 A 
HETATM    5  C5  UNL     1     -33.719   6.154   4.114  1.00 20.00    -0.019 A 
HETATM    6  C6  UNL     1     -33.226   7.077   1.955  1.00 20.00     0.034 A 
HETATM    7  C7  UNL     1     -33.970   3.799   4.583  1.00 20.00     0.074 A 
HETATM    8  C8  UNL     1     -34.021   6.077   5.572  1.00 20.00     0.185 A 
HETATM    9  C9  UNL     1     -34.116   4.590   5.869  1.00 20.00     0.160 A 
HETATM   10  O10 UNL     1     -35.252   5.450   5.968  1.00 20.00    -0.370 OA
HETATM   11 CL11 UNL     1     -32.936   8.443   0.946  1.00 20.00    -0.084 Cl
ENDROOT
TORSDOF 0
