REMARK  3 active torsions:
REMARK  status: ('A' for Active; 'I' for Inactive)
REMARK    1  A    between atoms: C2_2  and  C6_6 
REMARK    2  A    between atoms: C6_6  and  S9_9 
REMARK    3  A    between atoms: C7_7  and  S9_9 
ROOT
HETATM    1  S9  UNL     1     -33.550   6.974   4.405  1.00 20.00    -0.158 SA
ENDROOT
BRANCH   1   2
HETATM    2  C6  UNL     1     -33.361   6.576   2.655  1.00 20.00     0.108 C 
BRANCH   2   3
HETATM    3  C2  UNL     1     -32.535   7.638   1.953  1.00 20.00     0.154 A 
HETATM    4  C1  UNL     1     -32.596   7.812   0.462  1.00 20.00     0.201 A 
HETATM    5  O8  UNL     1     -33.301   8.689   1.355  1.00 20.00    -0.380 OA
ENDBRANCH   2   3
ENDBRANCH   1   2
BRANCH   1   6
HETATM    6  C7  UNL     1     -34.562   5.519   4.881  1.00 20.00    -0.003 C 
HETATM    7  C3  UNL     1     -33.764   4.247   4.583  1.00 20.00     0.026 C 
HETATM    8  C4  UNL     1     -34.871   5.615   6.378  1.00 20.00     0.026 C 
HETATM    9  C5  UNL     1     -35.860   5.537   4.068  1.00 20.00     0.026 C 
ENDBRANCH   1   6
TORSDOF 3
