REMARK  1 active torsions:
REMARK  status: ('A' for Active; 'I' for Inactive)
REMARK    1  A    between atoms: C1_1  and  C8_8 
ROOT
HETATM    1  C1  UNL     1     -34.070   6.202   4.428  1.00 20.00     0.014 C 
HETATM    2  C2  UNL     1     -35.001   5.199   5.034  1.00 20.00     0.057 C 
HETATM    3  C3  UNL     1     -34.744   5.485   6.494  1.00 20.00     0.027 C 
HETATM    4  C4  UNL     1     -34.356   6.953   6.484  1.00 20.00     0.149 C 
HETATM    5  N9  UNL     1     -33.685   7.182   5.188  1.00 20.00    -0.298 NA
ENDROOT
BRANCH   1   6
HETATM    6  C8  UNL     1     -33.651   6.084   3.000  1.00 20.00    -0.011 C 
HETATM    7  C5  UNL     1     -34.895   6.148   2.105  1.00 20.00     0.021 C 
HETATM    8  C6  UNL     1     -32.929   4.746   2.785  1.00 20.00     0.021 C 
HETATM    9  C7  UNL     1     -32.701   7.237   2.646  1.00 20.00     0.021 C 
ENDBRANCH   1   6
TORSDOF 1
