REMARK  5 active torsions:
REMARK  status: ('A' for Active; 'I' for Inactive)
REMARK    1  A    between atoms: C3_3  and  C5_5 
REMARK    2  A    between atoms: C4_4  and  C6_6 
REMARK    3  A    between atoms: C5_5  and  C7_7 
REMARK    4  A    between atoms: C6_6  and  S9_9 
REMARK    5  A    between atoms: C7_7  and  S9_9 
ROOT
HETATM    1  C1  UNL     1     -35.052   5.772   5.397  1.00 20.00     0.059 C 
HETATM    2  C3  UNL     1     -35.425   4.984   4.215  1.00 20.00     0.124 C 
HETATM    3  N8  UNL     1     -34.759   6.395   6.331  1.00 20.00    -0.197 NA
ENDROOT
BRANCH   2   4
HETATM    4  C5  UNL     1     -34.190   4.382   3.542  1.00 20.00     0.024 C 
BRANCH   4   5
HETATM    5  C7  UNL     1     -33.209   5.475   3.125  1.00 20.00     0.075 C 
BRANCH   5   6
HETATM    6  S9  UNL     1     -33.989   6.628   1.959  1.00 20.00    -0.169 SA
BRANCH   6   7
HETATM    7  C6  UNL     1     -32.582   7.734   1.704  1.00 20.00     0.073 C 
BRANCH   7   8
HETATM    8  C4  UNL     1     -32.949   8.849   0.731  1.00 20.00     0.006 C 
HETATM    9  C2  UNL     1     -33.354   8.284  -0.622  1.00 20.00     0.006 C 
ENDBRANCH   7   8
ENDBRANCH   6   7
ENDBRANCH   5   6
ENDBRANCH   4   5
ENDBRANCH   2   4
TORSDOF 5
