REMARK  3 active torsions:
REMARK  status: ('A' for Active; 'I' for Inactive)
REMARK    1  A    between atoms: C5_5  and  C8_8 
REMARK    2  A    between atoms: C7_7  and  N9_9 
REMARK    3  A    between atoms: C8_8  and  N9_9 
ROOT
HETATM    1  C1  UNL     1     -33.377   9.287   0.368  1.00 20.00     0.013 C 
HETATM    2  C2  UNL     1     -32.755   8.390   0.869  1.00 20.00    -0.087 C 
HETATM    3  C7  UNL     1     -31.993   7.296   1.475  1.00 20.00     0.362 C 
ENDROOT
BRANCH   3   4
HETATM    4  N9  UNL     1     -32.460   7.031   2.819  1.00 20.00     0.098 N 
HETATM    5  H22 UNL     1     -31.756   6.530   3.345  1.00 20.00     0.317 HD
BRANCH   4   6
HETATM    6  C8  UNL     1     -33.679   6.186   2.774  1.00 20.00     0.221 C 
HETATM    7  C6  UNL     1     -33.269   4.743   2.516  1.00 20.00     0.043 C 
BRANCH   6   8
HETATM    8  C5  UNL     1     -34.434   6.331   4.087  1.00 20.00     0.018 A 
HETATM    9  C3  UNL     1     -35.738   5.611   4.294  1.00 20.00     0.007 A 
HETATM   10  C4  UNL     1     -34.512   5.176   5.047  1.00 20.00     0.007 A 
ENDBRANCH   6   8
ENDBRANCH   4   6
ENDBRANCH   3   4
TORSDOF 3
