REMARK  0 active torsions:
REMARK  status: ('A' for Active; 'I' for Inactive)
ROOT
HETATM    1  C1  UNL     1     -34.241   7.767   4.226  1.00 20.00     0.010 A 
HETATM    2  C2  UNL     1     -33.463   8.324   3.205  1.00 20.00     0.019 A 
HETATM    3  C3  UNL     1     -33.090   6.131   2.226  1.00 20.00     0.034 A 
HETATM    4  C4  UNL     1     -33.864   5.611   3.247  1.00 20.00     0.018 A 
HETATM    5  C5  UNL     1     -34.436   6.394   4.243  1.00 20.00    -0.040 A 
HETATM    6  C6  UNL     1     -32.891   7.511   2.213  1.00 20.00     0.011 A 
HETATM    7  C7  UNL     1     -34.232   4.225   3.486  1.00 20.00     0.160 A 
HETATM    8  C8  UNL     1     -35.122   4.141   4.702  1.00 20.00     0.093 A 
HETATM    9  C9  UNL     1     -35.227   5.590   5.236  1.00 20.00     0.023 A 
HETATM   10  C10 UNL     1     -34.682   5.713   6.655  1.00 20.00     0.015 C 
HETATM   11  O11 UNL     1     -33.873   3.292   2.791  1.00 20.00    -0.292 OA
HETATM   12 BR12 UNL     1     -31.844   8.297   0.847  1.00 20.00    -0.051 Br
ENDROOT
TORSDOF 0
