REMARK  0 active torsions:
REMARK  status: ('A' for Active; 'I' for Inactive)
ROOT
HETATM    1  C1  UNL     1     -33.179   7.503   4.213  1.00 20.00     0.010 A 
HETATM    2  C2  UNL     1     -32.799   8.216   3.070  1.00 20.00     0.019 A 
HETATM    3  C3  UNL     1     -33.103   6.246   1.680  1.00 20.00     0.034 A 
HETATM    4  C4  UNL     1     -33.473   5.568   2.827  1.00 20.00     0.018 A 
HETATM    5  C5  UNL     1     -33.523   6.165   4.081  1.00 20.00    -0.040 A 
HETATM    6  C6  UNL     1     -32.762   7.591   1.813  1.00 20.00     0.011 A 
HETATM    7  C7  UNL     1     -33.862   4.174   2.967  1.00 20.00     0.160 A 
HETATM    8  C8  UNL     1     -34.145   3.872   4.419  1.00 20.00     0.093 A 
HETATM    9  C9  UNL     1     -33.958   5.216   5.162  1.00 20.00     0.023 A 
HETATM   10  C10 UNL     1     -35.240   5.667   5.854  1.00 20.00     0.015 C 
HETATM   11  O11 UNL     1     -33.929   3.386   2.042  1.00 20.00    -0.292 OA
HETATM   12 BR12 UNL     1     -32.243   8.584   0.289  1.00 20.00    -0.051 Br
ENDROOT
TORSDOF 0
