REMARK  0 active torsions:
REMARK  status: ('A' for Active; 'I' for Inactive)
ROOT
HETATM    1  C1  UNL     1     -33.356   5.949   0.979  1.00 20.00     0.033 A 
HETATM    2  C2  UNL     1     -32.634   7.592   2.620  1.00 20.00     0.033 A 
HETATM    3  C3  UNL     1     -33.640   5.091   2.026  1.00 20.00    -0.028 A 
HETATM    4  C4  UNL     1     -32.935   6.717   3.668  1.00 20.00    -0.033 A 
HETATM    5  C5  UNL     1     -33.418   5.458   3.356  1.00 20.00     0.040 A 
HETATM    6  C6  UNL     1     -32.840   7.209   1.285  1.00 20.00     0.035 A 
HETATM    7  C7  UNL     1     -34.246   3.726   1.986  1.00 20.00     0.060 C 
HETATM    8  C8  UNL     1     -34.076   3.271   3.452  1.00 20.00     0.124 C 
HETATM    9  C9  UNL     1     -32.729   7.147   5.079  1.00 20.00     0.050 C 
HETATM   10  N10 UNL     1     -33.828   4.468   4.246  1.00 20.00    -0.389 N 
HETATM   11 CL11 UNL     1     -32.469   8.311   0.014  1.00 20.00    -0.084 Cl
HETATM   12  H21 UNL     1     -33.504   4.437   5.203  1.00 20.00     0.159 HD
ENDROOT
TORSDOF 0
