REMARK  2 active torsions:
REMARK  status: ('A' for Active; 'I' for Inactive)
REMARK    1  A    between atoms: C2_2  and  C8_8 
REMARK    2  A    between atoms: C8_8  and  N9_9 
ROOT
HETATM    1  C3  UNL     1     -34.708   4.913   6.418  1.00 20.00     0.003 C 
HETATM    2  C4  UNL     1     -33.700   6.058   6.425  1.00 20.00     0.030 C 
HETATM    3  C5  UNL     1     -34.921   4.385   5.004  1.00 20.00     0.030 C 
HETATM    4  C6  UNL     1     -34.075   7.135   5.404  1.00 20.00     0.273 C 
HETATM    5  C7  UNL     1     -35.254   5.519   4.031  1.00 20.00     0.273 C 
HETATM    6  N9  UNL     1     -34.286   6.624   4.043  1.00 20.00     0.093 N 
ENDROOT
BRANCH   6   7
HETATM    7  C8  UNL     1     -33.032   6.269   3.383  1.00 20.00     0.317 C 
BRANCH   7   8
HETATM    8  C2  UNL     1     -32.311   7.464   2.827  1.00 20.00     0.007 C 
HETATM    9  C1  UNL     1     -31.098   7.849   3.246  1.00 20.00     0.029 C 
HETATM   10 BR10 UNL     1     -33.188   8.363   1.435  1.00 20.00    -0.055 Br
ENDBRANCH   7   8
ENDBRANCH   6   7
TORSDOF 2
