REMARK  3 active torsions:
REMARK  status: ('A' for Active; 'I' for Inactive)
REMARK    1  A    between atoms: C5_5  and  N9_9 
REMARK    2  A    between atoms: C6_6  and  C7_7 
REMARK    3  A    between atoms: C7_7  and  N9_9 
ROOT
HETATM    1  C1  UNL     1     -32.717   8.299   1.385  1.00 20.00     0.089 C 
HETATM    2  C5  UNL     1     -32.655   7.093   2.208  1.00 20.00     0.393 C 
HETATM    3  N8  UNL     1     -32.763   9.257   0.731  1.00 20.00    -0.195 NA
ENDROOT
BRANCH   2   4
HETATM    4  N9  UNL     1     -33.812   7.006   3.092  1.00 20.00     0.100 N 
HETATM    5  H23 UNL     1     -34.661   6.980   2.524  1.00 20.00     0.317 HD
BRANCH   4   6
HETATM    6  C7  UNL     1     -33.748   5.823   3.926  1.00 20.00     0.221 C 
HETATM    7  C4  UNL     1     -34.222   4.618   3.117  1.00 20.00     0.043 C 
BRANCH   6   8
HETATM    8  C6  UNL     1     -34.545   6.024   5.235  1.00 20.00     0.010 C 
HETATM    9  C2  UNL     1     -34.487   4.827   6.190  1.00 20.00     0.011 C 
HETATM   10  C3  UNL     1     -34.097   7.294   5.969  1.00 20.00     0.011 C 
ENDBRANCH   6   8
ENDBRANCH   4   6
ENDBRANCH   2   4
TORSDOF 3
