REMARK  1 active torsions:
REMARK  status: ('A' for Active; 'I' for Inactive)
REMARK    1  A    between atoms: C4_4  and  S6_6 
ROOT
HETATM    1  C1  UNL     1     -33.414   6.872   4.606  1.00 20.00     0.026 C 
HETATM    2  C2  UNL     1     -34.093   7.172   5.934  1.00 20.00     0.075 C 
HETATM    3  C3  UNL     1     -34.674   4.793   4.822  1.00 20.00     0.088 C 
HETATM    4  C4  UNL     1     -34.350   5.927   3.859  1.00 20.00     0.054 C 
HETATM    5  S5  UNL     1     -34.854   5.604   6.439  1.00 20.00    -0.168 SA
ENDROOT
BRANCH   4   6
HETATM    6  S6  UNL     1     -33.580   5.295   2.339  1.00 20.00    -0.177 SA
HETATM    7  H14 UNL     1     -34.625   4.546   1.969  1.00 20.00     0.102 HD
ENDBRANCH   4   6
TORSDOF 1
