REMARK  4 active torsions:
REMARK  status: ('A' for Active; 'I' for Inactive)
REMARK    1  A    between atoms: C2_2  and  C5_5 
REMARK    2  A    between atoms: C5_5  and  S9_9 
REMARK    3  A    between atoms: C6_6  and  C7_7 
REMARK    4  A    between atoms: C6_6  and  S9_9 
ROOT
HETATM    1  S9  UNL     1     -32.076   7.104   3.212  1.00 20.00    -0.166 SA
ENDROOT
BRANCH   1   2
HETATM    2  C5  UNL     1     -33.265   6.771   4.531  1.00 20.00     0.108 C 
BRANCH   2   3
HETATM    3  C2  UNL     1     -34.484   6.056   3.981  1.00 20.00     0.154 A 
HETATM    4  C1  UNL     1     -34.365   4.716   3.309  1.00 20.00     0.201 A 
HETATM    5  O8  UNL     1     -34.822   4.845   4.665  1.00 20.00    -0.380 OA
ENDBRANCH   2   3
ENDBRANCH   1   2
BRANCH   1   6
HETATM    6  C6  UNL     1     -33.257   7.574   1.910  1.00 20.00     0.077 C 
BRANCH   6   7
HETATM    7  C7  UNL     1     -32.655   8.339   0.719  1.00 20.00    -0.013 C 
HETATM    8  C3  UNL     1     -31.574   7.540  -0.012  1.00 20.00     0.010 C 
HETATM    9  C4  UNL     1     -33.717   8.834  -0.265  1.00 20.00     0.010 C 
ENDBRANCH   6   7
ENDBRANCH   1   6
TORSDOF 4
