REMARK  1 active torsions:
REMARK  status: ('A' for Active; 'I' for Inactive)
REMARK    1  A    between atoms: C1_1  and  C5_5 
ROOT
HETATM    1  C2  UNL     1     -34.866   4.782   5.332  1.00 20.00     0.193 C 
HETATM    2  C3  UNL     1     -34.671   6.233   5.742  1.00 20.00     0.195 C 
HETATM    3  C4  UNL     1     -34.045   5.278   3.184  1.00 20.00     0.206 C 
HETATM    4  C5  UNL     1     -33.847   6.727   3.599  1.00 20.00     0.206 C 
HETATM    5  O7  UNL     1     -35.125   4.709   3.928  1.00 20.00    -0.386 OA
HETATM    6  O8  UNL     1     -33.590   6.803   5.000  1.00 20.00    -0.375 OA
ENDROOT
BRANCH   4   7
HETATM    7  C1  UNL     1     -32.639   7.315   2.951  1.00 20.00     0.265 C 
HETATM    8  O6  UNL     1     -32.264   7.015   1.822  1.00 20.00    -0.304 OA
ENDBRANCH   4   7
TORSDOF 1
