REMARK  1 active torsions:
REMARK  status: ('A' for Active; 'I' for Inactive)
REMARK    1  A    between atoms: C1_1  and  C6_6 
ROOT
HETATM    1  C2  UNL     1     -35.249   4.938   4.209  1.00 20.00     0.027 C 
HETATM    2  C3  UNL     1     -34.147   5.491   3.312  1.00 20.00     0.015 C 
HETATM    3  C4  UNL     1     -34.889   5.120   5.678  1.00 20.00     0.167 C 
HETATM    4  C5  UNL     1     -33.507   6.990   5.220  1.00 20.00     0.179 C 
HETATM    5  C6  UNL     1     -33.791   6.913   3.727  1.00 20.00     0.071 C 
HETATM    6  O8  UNL     1     -34.617   6.492   5.967  1.00 20.00    -0.390 OA
ENDROOT
BRANCH   5   7
HETATM    7  C1  UNL     1     -32.539   7.329   2.984  1.00 20.00     0.237 C 
HETATM    8  O7  UNL     1     -32.240   6.905   1.872  1.00 20.00    -0.306 OA
ENDBRANCH   5   7
TORSDOF 1
