REMARK  4 active torsions:
REMARK  status: ('A' for Active; 'I' for Inactive)
REMARK    1  A    between atoms: C5_5  and  C6_6 
REMARK    2  A    between atoms: C5_5  and  C7_7 
REMARK    3  A    between atoms: C6_6  and  S9_9 
REMARK    4  A    between atoms: C7_7  and  O8_8 
ROOT
HETATM    1  C5  UNL     1     -33.900   7.416   2.191  1.00 20.00     0.051 C 
ENDROOT
BRANCH   1   2
HETATM    2  C6  UNL     1     -32.698   7.875   1.341  1.00 20.00     0.043 C 
HETATM    3  C1  UNL     1     -32.934   9.158   0.551  1.00 20.00     0.021 C 
BRANCH   2   4
HETATM    4  S9  UNL     1     -32.284   6.537   0.156  1.00 20.00    -0.178 SA
HETATM    5  H25 UNL     1     -31.197   7.141  -0.336  1.00 20.00     0.102 HD
ENDBRANCH   2   4
ENDBRANCH   1   2
BRANCH   1   6
HETATM    6  C7  UNL     1     -33.596   6.485   3.389  1.00 20.00     0.054 C 
HETATM    7  C2  UNL     1     -32.992   5.147   2.960  1.00 20.00     0.045 C 
HETATM    8  C3  UNL     1     -32.643   7.200   4.357  1.00 20.00     0.045 C 
BRANCH   6   9
HETATM    9  O8  UNL     1     -34.808   6.235   4.102  1.00 20.00    -0.386 OA
HETATM   10  C4  UNL     1     -34.679   5.111   4.958  1.00 20.00     0.202 C 
ENDBRANCH   6   9
ENDBRANCH   1   6
TORSDOF 4
