REMARK  1 active torsions:
REMARK  status: ('A' for Active; 'I' for Inactive)
REMARK    1  A    between atoms: C9_9  and  O10_10 
ROOT
HETATM    1  C1  UNL     1     -34.267   4.311   4.107  1.00 20.00     0.001 C 
HETATM    2  C2  UNL     1     -33.548   4.405   2.764  1.00 20.00     0.005 C 
HETATM    3  C3  UNL     1     -35.172   5.490   4.448  1.00 20.00     0.007 C 
HETATM    4  C4  UNL     1     -33.601   6.766   1.832  1.00 20.00     0.005 C 
HETATM    5  C5  UNL     1     -34.733   7.292   2.712  1.00 20.00     0.007 C 
HETATM    6  C6  UNL     1     -32.131   6.269   3.808  1.00 20.00     0.036 C 
HETATM    7  C7  UNL     1     -32.746   5.698   2.521  1.00 20.00    -0.012 C 
HETATM    8  C8  UNL     1     -34.595   6.896   4.189  1.00 20.00     0.014 C 
HETATM    9  C9  UNL     1     -33.138   7.069   4.650  1.00 20.00     0.122 C 
ENDROOT
BRANCH   9  10
HETATM   10  O10 UNL     1     -33.019   6.717   6.024  1.00 20.00    -0.395 OA
HETATM   11  H26 UNL     1     -32.110   6.931   6.287  1.00 20.00     0.210 HD
ENDBRANCH   9  10
TORSDOF 1
