REMARK  3 active torsions:
REMARK  status: ('A' for Active; 'I' for Inactive)
REMARK    1  A    between atoms: C1_1  and  C7_7 
REMARK    2  A    between atoms: C1_1  and  C9_9 
REMARK    3  A    between atoms: C8_8  and  C9_9 
ROOT
HETATM    1  C1  UNL     1     -32.958   7.652   2.103  1.00 20.00     0.131 C 
HETATM    2  O10 UNL     1     -33.361   8.422   2.973  1.00 20.00    -0.298 OA
ENDROOT
BRANCH   1   3
HETATM    3  C7  UNL     1     -32.404   8.172   0.802  1.00 20.00     0.055 A 
HETATM    4  C3  UNL     1     -33.326   8.276  -0.359  1.00 20.00     0.013 A 
HETATM    5  C4  UNL     1     -32.848   9.513   0.341  1.00 20.00     0.013 A 
ENDBRANCH   1   3
BRANCH   1   6
HETATM    6  C9  UNL     1     -32.984   6.142   2.266  1.00 20.00     0.083 C 
BRANCH   6   7
HETATM    7  C8  UNL     1     -34.099   5.670   3.177  1.00 20.00    -0.008 C 
HETATM    8  C5  UNL     1     -33.953   6.005   4.684  1.00 20.00     0.005 C 
HETATM    9  C2  UNL     1     -34.588   4.629   4.975  1.00 20.00     0.001 C 
HETATM   10  C6  UNL     1     -34.069   4.177   3.594  1.00 20.00     0.005 C 
ENDBRANCH   6   7
ENDBRANCH   1   6
TORSDOF 3
