REMARK  2 active torsions:
REMARK  status: ('A' for Active; 'I' for Inactive)
REMARK    1  A    between atoms: C1_1  and  C2_2 
REMARK    2  A    between atoms: C2_2  and  O3_3 
ROOT
HETATM    1  C2  UNL     1     -34.969   5.635   4.454  1.00 20.00     0.226 C 
HETATM    2 CL5  UNL     1     -34.328   4.178   3.655  1.00 20.00    -0.070 Cl
HETATM    3 CL6  UNL     1     -34.605   5.539   6.202  1.00 20.00    -0.070 Cl
ENDROOT
BRANCH   1   4
HETATM    4  C1  UNL     1     -34.362   6.916   3.887  1.00 20.00     0.187 C 
HETATM    5 CL4  UNL     1     -32.700   7.208   4.475  1.00 20.00    -0.125 Cl
ENDBRANCH   1   4
BRANCH   1   6
HETATM    6  O3  UNL     1     -36.382   5.660   4.307  1.00 20.00    -0.361 OA
HETATM    7  H9  UNL     1     -36.712   4.827   4.682  1.00 20.00     0.213 HD
ENDBRANCH   1   6
TORSDOF 2
