REMARK  3 active torsions:
REMARK  status: ('A' for Active; 'I' for Inactive)
REMARK    1  A    between atoms: C2_2  and  C5_5 
REMARK    2  A    between atoms: C2_2  and  C8_8 
REMARK    3  A    between atoms: C7_7  and  C8_8 
ROOT
HETATM    1  C1  UNL     1     -32.883   7.382   1.900  1.00 20.00     0.071 C 
HETATM    2  C8  UNL     1     -33.851   6.540   2.626  1.00 20.00     0.162 C 
HETATM    3  N9  UNL     1     -32.124   8.046   1.327  1.00 20.00    -0.196 NA
ENDROOT
BRANCH   2   4
HETATM    4  C2  UNL     1     -33.631   6.617   4.129  1.00 20.00     0.148 C 
HETATM    5  O10 UNL     1     -32.719   7.238   4.663  1.00 20.00    -0.296 OA
BRANCH   4   6
HETATM    6  C5  UNL     1     -34.606   5.866   4.975  1.00 20.00     0.057 A 
HETATM    7  C3  UNL     1     -34.358   4.418   5.232  1.00 20.00     0.013 A 
HETATM    8  C4  UNL     1     -34.173   5.420   6.331  1.00 20.00     0.013 A 
ENDBRANCH   4   6
ENDBRANCH   2   4
BRANCH   2   9
HETATM    9  C7  UNL     1     -33.825   5.087   2.129  1.00 20.00     0.022 C 
HETATM   10  C6  UNL     1     -32.496   4.367   2.335  1.00 20.00     0.007 C 
ENDBRANCH   2   9
TORSDOF 3
