REMARK  2 active torsions:
REMARK  status: ('A' for Active; 'I' for Inactive)
REMARK    1  A    between atoms: C1_1  and  C3_3 
REMARK    2  A    between atoms: C2_2  and  C7_7 
ROOT
HETATM    1  C1  UNL     1     -33.041   6.737   2.456  1.00 20.00     0.038 C 
HETATM    2  C2  UNL     1     -33.839   6.843   3.527  1.00 20.00    -0.015 C 
ENDROOT
BRANCH   2   3
HETATM    3  C7  UNL     1     -34.398   5.704   4.368  1.00 20.00    -0.034 C 
HETATM    4  C4  UNL     1     -35.935   5.771   4.309  1.00 20.00     0.018 C 
HETATM    5  C5  UNL     1     -33.952   4.303   3.910  1.00 20.00     0.018 C 
HETATM    6  C6  UNL     1     -33.942   5.910   5.824  1.00 20.00     0.018 C 
ENDBRANCH   2   3
BRANCH   1   7
HETATM    7  C3  UNL     1     -32.600   7.966   1.766  1.00 20.00     0.258 C 
HETATM    8  O8  UNL     1     -31.870   7.931   0.783  1.00 20.00    -0.302 OA
ENDBRANCH   1   7
TORSDOF 2
