REMARK  5 active torsions:
REMARK  status: ('A' for Active; 'I' for Inactive)
REMARK    1  A    between atoms: C3_3  and  C8_8 
REMARK    2  A    between atoms: C6_6  and  C7_7 
REMARK    3  A    between atoms: C7_7  and  C9_9 
REMARK    4  A    between atoms: C8_8  and  C9_9 
REMARK    5  A    between atoms: C8_8  and  O10_10 
ROOT
HETATM    1  C8  UNL     1     -32.793   6.451   4.076  1.00 20.00     0.126 C 
ENDROOT
BRANCH   1   2
HETATM    2  C3  UNL     1     -34.270   6.361   4.329  1.00 20.00     0.015 A 
HETATM    3  C1  UNL     1     -34.979   5.039   4.215  1.00 20.00     0.007 A 
HETATM    4  C2  UNL     1     -34.785   5.674   5.564  1.00 20.00     0.007 A 
ENDBRANCH   1   2
BRANCH   1   5
HETATM    5  C9  UNL     1     -32.396   6.545   2.583  1.00 20.00     0.011 C 
HETATM    6  C5  UNL     1     -32.778   5.288   1.789  1.00 20.00     0.012 C 
BRANCH   5   7
HETATM    7  C7  UNL     1     -32.961   7.830   1.941  1.00 20.00     0.006 C 
BRANCH   7   8
HETATM    8  C6  UNL     1     -32.446   8.075   0.520  1.00 20.00    -0.004 C 
HETATM    9  C4  UNL     1     -33.010   9.364  -0.059  1.00 20.00     0.005 C 
ENDBRANCH   7   8
ENDBRANCH   5   7
ENDBRANCH   1   5
BRANCH   1  10
HETATM   10  O10 UNL     1     -32.271   7.593   4.758  1.00 20.00    -0.395 OA
HETATM   11  H28 UNL     1     -32.457   7.457   5.699  1.00 20.00     0.210 HD
ENDBRANCH   1  10
TORSDOF 5
