REMARK  3 active torsions:
REMARK  status: ('A' for Active; 'I' for Inactive)
REMARK    1  A    between atoms: C4_4  and  C8_8 
REMARK    2  A    between atoms: C7_7  and  N10_10 
REMARK    3  A    between atoms: C8_8  and  N10_10 
ROOT
HETATM    1  C1  UNL     1     -32.976   8.139   1.449  1.00 20.00     0.089 C 
HETATM    2  C7  UNL     1     -32.514   6.824   1.888  1.00 20.00     0.395 C 
HETATM    3  N9  UNL     1     -33.342   9.182   1.097  1.00 20.00    -0.195 NA
ENDROOT
BRANCH   2   4
HETATM    4  N10 UNL     1     -32.334   6.792   3.332  1.00 20.00     0.101 N 
HETATM    5  C6  UNL     1     -31.352   7.776   3.763  1.00 20.00     0.311 C 
BRANCH   4   6
HETATM    6  C8  UNL     1     -33.631   7.053   4.003  1.00 20.00     0.223 C 
HETATM    7  C5  UNL     1     -33.422   7.009   5.510  1.00 20.00     0.043 C 
BRANCH   6   8
HETATM    8  C4  UNL     1     -34.647   6.018   3.543  1.00 20.00     0.018 A 
HETATM    9  C2  UNL     1     -34.421   4.558   3.822  1.00 20.00     0.007 A 
HETATM   10  C3  UNL     1     -35.506   5.302   4.549  1.00 20.00     0.007 A 
ENDBRANCH   6   8
ENDBRANCH   4   6
ENDBRANCH   2   4
TORSDOF 3
