REMARK  3 active torsions:
REMARK  status: ('A' for Active; 'I' for Inactive)
REMARK    1  A    between atoms: C5_5  and  C9_9 
REMARK    2  A    between atoms: C8_8  and  N10_10 
REMARK    3  A    between atoms: C9_9  and  N10_10 
ROOT
HETATM    1  C1  UNL     1     -33.057   8.708   1.335  1.00 20.00     0.013 C 
HETATM    2  C2  UNL     1     -32.813   7.710   1.956  1.00 20.00    -0.087 C 
HETATM    3  C8  UNL     1     -32.511   6.494   2.714  1.00 20.00     0.364 C 
ENDROOT
BRANCH   3   4
HETATM    4  N10 UNL     1     -33.697   5.660   2.843  1.00 20.00     0.099 N 
HETATM    5  C7  UNL     1     -33.343   4.284   3.159  1.00 20.00     0.311 C 
BRANCH   4   6
HETATM    6  C9  UNL     1     -34.578   6.206   3.904  1.00 20.00     0.223 C 
HETATM    7  C6  UNL     1     -36.007   5.758   3.636  1.00 20.00     0.043 C 
BRANCH   6   8
HETATM    8  C5  UNL     1     -34.082   5.725   5.260  1.00 20.00     0.018 A 
HETATM    9  C3  UNL     1     -34.986   5.776   6.460  1.00 20.00     0.007 A 
HETATM   10  C4  UNL     1     -34.617   4.451   5.854  1.00 20.00     0.007 A 
ENDBRANCH   6   8
ENDBRANCH   4   6
ENDBRANCH   3   4
TORSDOF 3
