REMARK  3 active torsions:
REMARK  status: ('A' for Active; 'I' for Inactive)
REMARK    1  A    between atoms: C4_4  and  C6_6 
REMARK    2  A    between atoms: C5_5  and  C7_7 
REMARK    3  A    between atoms: C6_6  and  C7_7 
ROOT
HETATM    1  C1  UNL     1     -33.732   6.734   5.272  1.00 20.00     0.064 C 
HETATM    2  C7  UNL     1     -33.718   6.879   3.802  1.00 20.00     0.092 C 
HETATM    3  N8  UNL     1     -33.744   6.621   6.427  1.00 20.00    -0.197 NA
ENDROOT
BRANCH   2   4
HETATM    4  C5  UNL     1     -34.291   5.616   3.128  1.00 20.00     0.014 C 
HETATM    5  C3  UNL     1     -33.496   4.337   3.366  1.00 20.00     0.006 C 
ENDBRANCH   2   4
BRANCH   2   6
HETATM    6  C6  UNL     1     -32.309   7.227   3.289  1.00 20.00     0.019 C 
BRANCH   6   7
HETATM    7  C4  UNL     1     -32.246   7.337   1.761  1.00 20.00    -0.003 C 
HETATM    8  C2  UNL     1     -33.126   8.467   1.250  1.00 20.00     0.005 C 
ENDBRANCH   6   7
ENDBRANCH   2   6
TORSDOF 3
