REMARK  2 active torsions:
REMARK  status: ('A' for Active; 'I' for Inactive)
REMARK    1  A    between atoms: C1_1  and  C3_3 
REMARK    2  A    between atoms: C1_1  and  C8_8 
ROOT
HETATM    1  C2  UNL     1     -35.505   5.839   4.078  1.00 20.00     0.022 A 
HETATM    2  C3  UNL     1     -34.102   6.384   4.149  1.00 20.00     0.064 A 
HETATM    3  C4  UNL     1     -34.554   5.312   5.125  1.00 20.00    -0.037 A 
HETATM    4  C5  UNL     1     -34.778   5.729   6.555  1.00 20.00     0.015 C 
HETATM    5  C6  UNL     1     -34.055   3.899   4.970  1.00 20.00     0.015 C 
ENDROOT
BRANCH   2   6
HETATM    6  C1  UNL     1     -33.153   6.074   3.073  1.00 20.00     0.131 C 
HETATM    7  O9  UNL     1     -33.144   4.969   2.533  1.00 20.00    -0.298 OA
BRANCH   6   8
HETATM    8  C8  UNL     1     -32.201   7.189   2.680  1.00 20.00     0.074 C 
HETATM    9  C7  UNL     1     -32.748   8.056   1.560  1.00 20.00     0.013 C 
ENDBRANCH   6   8
ENDBRANCH   2   6
TORSDOF 2
