REMARK  0 active torsions:
REMARK  status: ('A' for Active; 'I' for Inactive)
ROOT
HETATM    1  C1  UNL     1     -34.718   4.291   4.379  1.00 20.00    -0.030 C 
HETATM    2  C2  UNL     1     -34.436   5.041   3.303  1.00 20.00    -0.020 C 
HETATM    3  C3  UNL     1     -33.299   6.788   5.677  1.00 20.00    -0.021 C 
HETATM    4  C4  UNL     1     -33.017   6.909   4.374  1.00 20.00    -0.050 C 
HETATM    5  C5  UNL     1     -34.571   4.622   5.835  1.00 20.00     0.030 C 
HETATM    6  C6  UNL     1     -34.522   6.106   6.195  1.00 20.00     0.031 C 
HETATM    7  C7  UNL     1     -31.797   7.594   3.852  1.00 20.00     0.202 C 
HETATM    8  C8  UNL     1     -32.778   6.477   2.106  1.00 20.00     0.180 C 
HETATM    9  C9  UNL     1     -33.828   6.412   3.215  1.00 20.00     0.062 C 
HETATM   10  O10 UNL     1     -31.945   7.598   2.425  1.00 20.00    -0.386 OA
ENDROOT
TORSDOF 0
