REMARK  0 active torsions:
REMARK  status: ('A' for Active; 'I' for Inactive)
ROOT
HETATM    1  C1  UNL     1     -32.330   7.528   1.835  1.00 20.00    -0.071 C 
HETATM    2  C2  UNL     1     -33.278   7.508   5.308  1.00 20.00     0.220 C 
HETATM    3  C3  UNL     1     -32.042   8.649   1.158  1.00 20.00     0.016 C 
HETATM    4  C4  UNL     1     -33.148   6.428   1.210  1.00 20.00     0.037 C 
HETATM    5  C5  UNL     1     -31.888   7.318   3.255  1.00 20.00     0.159 C 
HETATM    6  C6  UNL     1     -34.442   6.884   6.048  1.00 20.00     0.103 C 
HETATM    7  C7  UNL     1     -33.473   5.311   2.207  1.00 20.00     0.030 C 
HETATM    8  C8  UNL     1     -34.299   5.367   6.039  1.00 20.00     0.015 C 
HETATM    9  C9  UNL     1     -34.189   4.780   4.615  1.00 20.00     0.005 C 
HETATM   10  C10 UNL     1     -33.952   5.880   3.553  1.00 20.00     0.091 C 
HETATM   11  C11 UNL     1     -35.433   3.946   4.292  1.00 20.00     0.012 C 
HETATM   12  N12 UNL     1     -33.034   6.913   4.069  1.00 20.00    -0.343 N 
HETATM   13  O13 UNL     1     -32.645   8.446   5.790  1.00 20.00    -0.273 OA
ENDROOT
TORSDOF 0
