REMARK  1 active torsions:
REMARK  status: ('A' for Active; 'I' for Inactive)
REMARK    1  A    between atoms: C4_4  and  C8_8 
ROOT
HETATM    1  C1  UNL     1     -33.833   6.697   4.731  1.00 20.00    -0.057 C 
HETATM    2  C2  UNL     1     -33.187   7.587   5.501  1.00 20.00     0.017 C 
HETATM    3  C5  UNL     1     -34.907   5.809   5.314  1.00 20.00     0.038 C 
HETATM    4  C6  UNL     1     -34.644   4.352   4.938  1.00 20.00     0.030 C 
HETATM    5  C7  UNL     1     -34.394   4.214   3.440  1.00 20.00     0.169 C 
HETATM    6  C8  UNL     1     -33.591   6.453   3.254  1.00 20.00     0.171 C 
HETATM    7  O9  UNL     1     -33.314   5.060   3.038  1.00 20.00    -0.378 OA
ENDROOT
BRANCH   6   8
HETATM    8  C4  UNL     1     -32.457   7.222   2.658  1.00 20.00    -0.001 C 
HETATM    9  C3  UNL     1     -32.584   8.065   1.628  1.00 20.00     0.010 C 
ENDBRANCH   6   8
TORSDOF 1
