REMARK  1 active torsions:
REMARK  status: ('A' for Active; 'I' for Inactive)
REMARK    1  A    between atoms: C6_6  and  N7_7 
ROOT
HETATM    1  C1  UNL     1     -34.251   5.599   5.888  1.00 20.00     0.003 C 
HETATM    2  C2  UNL     1     -33.876   7.006   5.438  1.00 20.00     0.030 C 
HETATM    3  C3  UNL     1     -34.794   4.791   4.715  1.00 20.00     0.030 C 
HETATM    4  C4  UNL     1     -32.947   6.973   4.223  1.00 20.00     0.274 C 
HETATM    5  C5  UNL     1     -33.836   4.828   3.523  1.00 20.00     0.274 C 
HETATM    6  N7  UNL     1     -33.546   6.211   3.119  1.00 20.00     0.101 N 
ENDROOT
BRANCH   6   7
HETATM    7  C6  UNL     1     -32.668   6.228   1.949  1.00 20.00     0.386 C 
HETATM    8 CL8  UNL     1     -32.899   7.759   1.106  1.00 20.00    -0.098 Cl
ENDBRANCH   6   7
TORSDOF 1
