REMARK  1 active torsions:
REMARK  status: ('A' for Active; 'I' for Inactive)
REMARK    1  A    between atoms: C7_7  and  O11_11 
ROOT
HETATM    1  C1  UNL     1     -34.484   4.699   5.845  1.00 20.00    -0.027 C 
HETATM    2  C2  UNL     1     -34.295   5.948   6.309  1.00 20.00     0.001 C 
HETATM    3  C3  UNL     1     -34.179   4.277   4.424  1.00 20.00     0.036 C 
HETATM    4  C4  UNL     1     -32.609   6.608   1.845  1.00 20.00     0.001 C 
HETATM    5  C5  UNL     1     -32.690   7.483   3.108  1.00 20.00     0.008 C 
HETATM    6  C6  UNL     1     -33.192   5.232   2.218  1.00 20.00     0.010 C 
HETATM    7  C7  UNL     1     -33.724   7.070   5.472  1.00 20.00     0.145 C 
HETATM    8  C8  UNL     1     -33.090   6.504   4.204  1.00 20.00     0.026 C 
HETATM    9  C9  UNL     1     -34.005   5.492   3.493  1.00 20.00    -0.035 C 
HETATM   10  C10 UNL     1     -35.395   6.054   3.107  1.00 20.00     0.016 C 
ENDROOT
BRANCH   7  11
HETATM   11  O11 UNL     1     -32.733   7.748   6.237  1.00 20.00    -0.391 OA
HETATM   12  H27 UNL     1     -33.179   8.090   7.028  1.00 20.00     0.210 HD
ENDBRANCH   7  11
TORSDOF 1
