REMARK  2 active torsions:
REMARK  status: ('A' for Active; 'I' for Inactive)
REMARK    1  A    between atoms: C1_1  and  C3_3 
REMARK    2  A    between atoms: C3_3  and  C4_4 
ROOT
HETATM    1  C2  UNL     1     -33.893   4.214   3.818  1.00 20.00     0.069 C 
HETATM    2  C3  UNL     1     -34.132   5.716   4.030  1.00 20.00     0.264 C 
HETATM    3  O5  UNL     1     -35.296   6.063   3.519  1.00 20.00    -0.210 OA
ENDROOT
BRANCH   2   4
HETATM    4  C1  UNL     1     -33.061   6.580   3.331  1.00 20.00     0.265 C 
HETATM    5  O6  UNL     1     -32.338   7.351   3.961  1.00 20.00    -0.276 OA
HETATM    6 CL10 UNL     1     -32.977   6.397   1.587  1.00 20.00    -0.040 Cl
ENDBRANCH   2   4
BRANCH   2   7
HETATM    7  C4  UNL     1     -34.147   6.010   5.540  1.00 20.00     0.429 C 
HETATM    8  F7  UNL     1     -34.427   7.309   5.800  1.00 20.00    -0.167 F 
HETATM    9  F8  UNL     1     -32.965   5.728   6.136  1.00 20.00    -0.167 F 
HETATM   10  F9  UNL     1     -35.096   5.271   6.163  1.00 20.00    -0.167 F 
ENDBRANCH   2   7
TORSDOF 2
