REMARK  1 active torsions:
REMARK  status: ('A' for Active; 'I' for Inactive)
REMARK    1  A    between atoms: C4_4  and  C6_6 
ROOT
HETATM    1  C1  UNL     1     -33.803   6.359   4.999  1.00 20.00     0.089 A 
HETATM    2  C2  UNL     1     -34.125   5.855   2.668  1.00 20.00     0.044 A 
HETATM    3  C3  UNL     1     -34.455   5.663   4.058  1.00 20.00    -0.053 A 
HETATM    4  C4  UNL     1     -33.168   6.731   2.346  1.00 20.00     0.080 A 
HETATM    5  C5  UNL     1     -32.745   7.326   4.636  1.00 20.00     0.288 A 
HETATM    6  C8  UNL     1     -35.533   4.674   4.378  1.00 20.00     0.048 C 
HETATM    7  O11 UNL     1     -32.153   7.959   5.504  1.00 20.00    -0.260 OA
HETATM    8  O12 UNL     1     -32.463   7.480   3.305  1.00 20.00    -0.276 OA
ENDROOT
BRANCH   4   9
HETATM    9  C6  UNL     1     -32.765   6.996   0.993  1.00 20.00     0.039 C 
HETATM   10  C7  UNL     1     -32.825   8.202   0.368  1.00 20.00    -0.085 C 
HETATM   11  C9  UNL     1     -32.400   8.470  -1.049  1.00 20.00     0.043 C 
HETATM   12  C10 UNL     1     -33.348   9.418   1.089  1.00 20.00     0.043 C 
ENDBRANCH   4   9
TORSDOF 1
