REMARK  2 active torsions:
REMARK  status: ('A' for Active; 'I' for Inactive)
REMARK    1  A    between atoms: C1_1  and  C3_3 
REMARK    2  A    between atoms: C3_3  and  C4_4 
ROOT
HETATM    1  C2  UNL     1     -35.540   5.714   3.592  1.00 20.00     0.069 C 
HETATM    2  C3  UNL     1     -34.178   5.282   4.157  1.00 20.00     0.264 C 
HETATM    3  O5  UNL     1     -34.063   3.970   4.099  1.00 20.00    -0.210 OA
ENDROOT
BRANCH   2   4
HETATM    4  C1  UNL     1     -33.001   5.871   3.352  1.00 20.00     0.265 C 
HETATM    5  O6  UNL     1     -32.514   5.280   2.389  1.00 20.00    -0.276 OA
HETATM    6 CL10 UNL     1     -32.404   7.418   3.930  1.00 20.00    -0.040 Cl
ENDBRANCH   2   4
BRANCH   2   7
HETATM    7  C4  UNL     1     -34.087   5.719   5.628  1.00 20.00     0.429 C 
HETATM    8  F7  UNL     1     -34.128   7.067   5.759  1.00 20.00    -0.167 F 
HETATM    9  F8  UNL     1     -32.951   5.293   6.227  1.00 20.00    -0.167 F 
HETATM   10  F9  UNL     1     -35.126   5.223   6.342  1.00 20.00    -0.167 F 
ENDBRANCH   2   7
TORSDOF 2
