REMARK  1 active torsions:
REMARK  status: ('A' for Active; 'I' for Inactive)
REMARK    1  A    between atoms: C5_5  and  C6_6 
ROOT
HETATM    1  C1  UNL     1     -34.408   5.303   4.954  1.00 20.00     0.139 C 
HETATM    2  C2  UNL     1     -34.675   5.995   6.267  1.00 20.00     0.079 C 
HETATM    3  C3  UNL     1     -33.408   6.820   6.453  1.00 20.00     0.008 C 
HETATM    4  C4  UNL     1     -32.966   7.162   5.036  1.00 20.00     0.021 C 
HETATM    5  C5  UNL     1     -33.188   5.866   4.254  1.00 20.00     0.163 C 
HETATM    6  O7  UNL     1     -35.101   4.394   4.514  1.00 20.00    -0.297 OA
ENDROOT
BRANCH   5   7
HETATM    7  C6  UNL     1     -33.410   6.099   2.773  1.00 20.00     0.398 C 
HETATM    8  F8  UNL     1     -33.693   4.940   2.150  1.00 20.00    -0.170 F 
HETATM    9  F9  UNL     1     -34.435   6.948   2.578  1.00 20.00    -0.170 F 
HETATM   10  F10 UNL     1     -32.308   6.626   2.208  1.00 20.00    -0.170 F 
ENDBRANCH   5   7
TORSDOF 1
