REMARK  2 active torsions:
REMARK  status: ('A' for Active; 'I' for Inactive)
REMARK    1  A    between atoms: C1_1  and  C5_5 
REMARK    2  A    between atoms: C4_4  and  C5_5 
ROOT
HETATM    1  C5  UNL     1     -33.259   6.652   4.169  1.00 20.00     0.101 C 
ENDROOT
BRANCH   1   2
HETATM    2  C1  UNL     1     -33.039   6.199   2.736  1.00 20.00     0.219 C 
HETATM    3  O6  UNL     1     -32.831   6.984   1.817  1.00 20.00    -0.280 OA
HETATM    4 CL7  UNL     1     -33.122   4.465   2.585  1.00 20.00    -0.044 Cl
ENDBRANCH   1   2
BRANCH   1   5
HETATM    5  C4  UNL     1     -34.566   6.225   4.741  1.00 20.00    -0.006 A 
HETATM    6  C2  UNL     1     -34.686   4.907   5.456  1.00 20.00     0.005 A 
HETATM    7  C3  UNL     1     -34.765   6.193   6.231  1.00 20.00     0.005 A 
ENDBRANCH   1   5
TORSDOF 2
