REMARK  1 active torsions:
REMARK  status: ('A' for Active; 'I' for Inactive)
REMARK    1  A    between atoms: C2_2  and  C4_4 
REMARK       I    between atoms: C2_2  and  N7_7 
ROOT
HETATM    1  C1  UNL     1     -32.632   7.937   1.573  1.00 20.00     0.166 C 
HETATM    2  C2  UNL     1     -33.034   6.342   3.017  1.00 20.00     0.249 C 
HETATM    3  N7  UNL     1     -32.326   7.447   2.595  1.00 20.00    -0.199 NA
HETATM    4  O8  UNL     1     -33.152   5.265   2.442  1.00 20.00    -0.271 OA
HETATM    5  S9  UNL     1     -33.020   8.629   0.191  1.00 20.00    -0.055 SA
ENDROOT
BRANCH   2   6
HETATM    6  C4  UNL     1     -33.705   6.531   4.308  1.00 20.00     0.084 A 
HETATM    7  C3  UNL     1     -35.212   6.545   4.364  1.00 20.00     0.019 A 
HETATM    8  C5  UNL     1     -34.454   5.397   4.968  1.00 20.00    -0.005 A 
HETATM    9  C6  UNL     1     -34.540   4.041   4.354  1.00 20.00     0.011 C 
ENDBRANCH   2   6
TORSDOF 1
