REMARK  1 active torsions:
REMARK  status: ('A' for Active; 'I' for Inactive)
REMARK    1  A    between atoms: C4_4  and  C10_10 
ROOT
HETATM    1  C1  UNL     1     -33.007   6.716   0.471  1.00 20.00     0.008 C 
HETATM    2  C2  UNL     1     -33.480   7.610  -0.677  1.00 20.00     0.035 C 
HETATM    3  C3  UNL     1     -33.234   8.540   2.206  1.00 20.00     0.039 C 
HETATM    4  C4  UNL     1     -33.665   7.122   1.798  1.00 20.00    -0.005 C 
HETATM    5  C5  UNL     1     -33.440   9.066  -0.348  1.00 20.00     0.151 A 
HETATM    6  C6  UNL     1     -33.359   9.522   1.084  1.00 20.00     0.151 A 
HETATM    7  O11 UNL     1     -32.213   9.541   0.209  1.00 20.00    -0.375 OA
ENDROOT
BRANCH   4   8
HETATM    8  C10 UNL     1     -33.321   6.123   2.901  1.00 20.00    -0.048 C 
HETATM    9  C7  UNL     1     -33.791   4.716   2.493  1.00 20.00     0.015 C 
HETATM   10  C8  UNL     1     -34.021   6.531   4.208  1.00 20.00     0.015 C 
HETATM   11  C9  UNL     1     -31.800   6.102   3.127  1.00 20.00     0.015 C 
ENDBRANCH   4   8
TORSDOF 1
