REMARK  2 active torsions:
REMARK  status: ('A' for Active; 'I' for Inactive)
REMARK    1  A    between atoms: C4_4  and  C11_11 
REMARK    2  A    between atoms: C10_10  and  C11_11 
ROOT
HETATM    1  C1  UNL     1     -33.538   6.991   4.607  1.00 20.00     0.008 C 
HETATM    2  C2  UNL     1     -34.015   6.020   5.687  1.00 20.00     0.035 C 
HETATM    3  C3  UNL     1     -34.597   5.691   2.722  1.00 20.00     0.040 C 
HETATM    4  C4  UNL     1     -33.285   6.271   3.274  1.00 20.00    -0.004 C 
HETATM    5  C5  UNL     1     -35.127   5.140   5.212  1.00 20.00     0.151 A 
HETATM    6  C6  UNL     1     -35.393   4.945   3.744  1.00 20.00     0.151 A 
HETATM    7  O12 UNL     1     -34.670   3.972   4.501  1.00 20.00    -0.375 OA
ENDROOT
BRANCH   4   8
HETATM    8  C11 UNL     1     -32.651   7.219   2.257  1.00 20.00    -0.044 C 
HETATM    9  C8  UNL     1     -31.326   7.758   2.831  1.00 20.00     0.015 C 
HETATM   10  C9  UNL     1     -32.350   6.437   0.962  1.00 20.00     0.015 C 
BRANCH   8  11
HETATM   11  C10 UNL     1     -33.643   8.384   1.977  1.00 20.00     0.004 C 
HETATM   12  C7  UNL     1     -33.181   9.438   0.979  1.00 20.00     0.006 C 
ENDBRANCH   8  11
ENDBRANCH   4   8
TORSDOF 2
