REMARK  1 active torsions:
REMARK  status: ('A' for Active; 'I' for Inactive)
REMARK    1  A    between atoms: C2_2  and  C6_6 
REMARK       I    between atoms: C2_2  and  N7_7 
ROOT
HETATM    1  C1  UNL     1     -32.750   7.409   2.138  1.00 20.00     0.166 C 
HETATM    2  C2  UNL     1     -33.589   5.640   3.134  1.00 20.00     0.252 C 
HETATM    3  N7  UNL     1     -32.688   6.689   3.062  1.00 20.00    -0.199 NA
HETATM    4  O8  UNL     1     -33.704   4.736   2.305  1.00 20.00    -0.270 OA
HETATM    5  S9  UNL     1     -32.803   8.408   0.897  1.00 20.00    -0.055 SA
ENDROOT
BRANCH   2   6
HETATM    6  C6  UNL     1     -34.484   5.691   4.391  1.00 20.00     0.032 C 
HETATM    7  C3  UNL     1     -34.114   6.922   5.232  1.00 20.00     0.025 C 
HETATM    8  C4  UNL     1     -35.962   5.794   3.981  1.00 20.00     0.025 C 
HETATM    9  C5  UNL     1     -34.284   4.410   5.213  1.00 20.00     0.025 C 
ENDBRANCH   2   6
TORSDOF 1
