REMARK  2 active torsions:
REMARK  status: ('A' for Active; 'I' for Inactive)
REMARK    1  A    between atoms: C3_3  and  C5_5 
REMARK    2  A    between atoms: C4_4  and  C8_8 
ROOT
HETATM    1  C1  UNL     1     -33.990   4.838   2.960  1.00 20.00     0.023 A 
HETATM    2  C2  UNL     1     -33.412   5.588   1.895  1.00 20.00     0.016 A 
HETATM    3  C3  UNL     1     -34.077   5.572   4.122  1.00 20.00     0.043 A 
HETATM    4  C4  UNL     1     -33.080   6.867   2.284  1.00 20.00    -0.013 A 
HETATM    5  S10 UNL     1     -33.465   7.159   3.927  1.00 20.00    -0.091 SA
ENDROOT
BRANCH   4   6
HETATM    6  C8  UNL     1     -32.440   7.910   1.362  1.00 20.00     0.026 A 
HETATM    7  C6  UNL     1     -33.126   9.249   1.190  1.00 20.00     0.010 A 
HETATM    8  C7  UNL     1     -33.137   8.262   0.065  1.00 20.00     0.010 A 
ENDBRANCH   4   6
BRANCH   3   9
HETATM    9  C5  UNL     1     -34.592   5.177   5.393  1.00 20.00     0.277 C 
HETATM   10  O9  UNL     1     -34.629   5.921   6.396  1.00 20.00    -0.301 OA
ENDBRANCH   3   9
TORSDOF 2
