REMARK  2 active torsions:
REMARK  status: ('A' for Active; 'I' for Inactive)
REMARK    1  A    between atoms: C4_4  and  C11_11 
REMARK    2  A    between atoms: C10_10  and  C11_11 
ROOT
HETATM    1  C1  UNL     1     -33.443   7.699   4.233  1.00 20.00     0.008 C 
HETATM    2  C2  UNL     1     -32.261   8.517   3.710  1.00 20.00     0.035 C 
HETATM    3  C3  UNL     1     -33.158   5.874   2.507  1.00 20.00     0.040 C 
HETATM    4  C4  UNL     1     -33.220   6.195   4.009  1.00 20.00    -0.004 C 
HETATM    5  C5  UNL     1     -31.828   8.120   2.337  1.00 20.00     0.151 A 
HETATM    6  C6  UNL     1     -32.241   6.792   1.762  1.00 20.00     0.151 A 
HETATM    7  O12 UNL     1     -32.868   8.027   1.362  1.00 20.00    -0.375 OA
ENDROOT
BRANCH   4   8
HETATM    8  C11 UNL     1     -34.320   5.378   4.683  1.00 20.00    -0.044 C 
HETATM    9  C8  UNL     1     -35.679   5.753   4.058  1.00 20.00     0.015 C 
HETATM   10  C9  UNL     1     -34.055   3.879   4.435  1.00 20.00     0.015 C 
BRANCH   8  11
HETATM   11  C10 UNL     1     -34.310   5.693   6.206  1.00 20.00     0.004 C 
HETATM   12  C7  UNL     1     -33.020   5.378   6.952  1.00 20.00     0.006 C 
ENDBRANCH   8  11
ENDBRANCH   4   8
TORSDOF 2
