REMARK  0 active torsions:
REMARK  status: ('A' for Active; 'I' for Inactive)
ROOT
HETATM    1  C1  UNL     1     -32.862   5.006   2.303  1.00 20.00    -0.027 C 
HETATM    2  C2  UNL     1     -34.510   5.728   6.469  1.00 20.00    -0.027 C 
HETATM    3  C3  UNL     1     -32.865   6.282   1.893  1.00 20.00    -0.001 C 
HETATM    4  C4  UNL     1     -33.492   6.585   6.323  1.00 20.00    -0.001 C 
HETATM    5  C5  UNL     1     -33.660   4.557   3.492  1.00 20.00     0.063 C 
HETATM    6  C6  UNL     1     -35.332   5.273   5.300  1.00 20.00     0.063 C 
HETATM    7  C7  UNL     1     -33.639   7.353   2.612  1.00 20.00     0.300 C 
HETATM    8  C8  UNL     1     -33.118   7.166   4.990  1.00 20.00     0.300 C 
HETATM    9  C9  UNL     1     -34.702   5.614   3.933  1.00 20.00     0.230 C 
HETATM   10  N10 UNL     1     -34.142   6.980   3.946  1.00 20.00     0.100 N 
ENDROOT
TORSDOF 0
