REMARK  0 active torsions:
REMARK  status: ('A' for Active; 'I' for Inactive)
ROOT
HETATM    1  C1  UNL     1     -33.645   4.626   2.648  1.00 20.00     0.030 A 
HETATM    2  C2  UNL     1     -33.191   5.549   1.729  1.00 20.00     0.141 A 
HETATM    3  C3  UNL     1     -33.868   5.049   3.954  1.00 20.00    -0.030 A 
HETATM    4  C4  UNL     1     -33.638   6.390   4.248  1.00 20.00     0.063 A 
HETATM    5  C5  UNL     1     -34.404   4.086   4.978  1.00 20.00     0.041 C 
HETATM    6  C6  UNL     1     -33.821   6.933   5.639  1.00 20.00     0.062 C 
HETATM    7  C7  UNL     1     -34.258   4.592   6.413  1.00 20.00     0.005 C 
HETATM    8  C8  UNL     1     -34.702   6.047   6.517  1.00 20.00     0.006 C 
HETATM    9  N9  UNL     1     -32.960   6.838   2.041  1.00 20.00    -0.162 NA
HETATM   10  N10 UNL     1     -33.184   7.261   3.316  1.00 20.00    -0.155 NA
ENDROOT
TORSDOF 0
