REMARK  0 active torsions:
REMARK  status: ('A' for Active; 'I' for Inactive)
ROOT
HETATM    1  C1  UNL     1     -34.980   5.506   6.095  1.00 20.00    -0.026 C 
HETATM    2  C2  UNL     1     -33.072   5.380   1.611  1.00 20.00    -0.027 C 
HETATM    3  C3  UNL     1     -34.304   6.623   6.396  1.00 20.00    -0.001 C 
HETATM    4  C4  UNL     1     -33.430   4.653   2.678  1.00 20.00     0.005 C 
HETATM    5  C5  UNL     1     -32.668   6.819   1.737  1.00 20.00     0.057 C 
HETATM    6  C6  UNL     1     -34.764   4.779   4.798  1.00 20.00     0.066 C 
HETATM    7  C7  UNL     1     -33.325   7.243   5.438  1.00 20.00     0.300 C 
HETATM    8  C8  UNL     1     -32.402   7.240   3.189  1.00 20.00     0.277 C 
HETATM    9  C9  UNL     1     -33.485   5.242   4.066  1.00 20.00     0.249 C 
HETATM   10  N10 UNL     1     -33.455   6.722   4.068  1.00 20.00     0.100 N 
ENDROOT
TORSDOF 0
