REMARK  0 active torsions:
REMARK  status: ('A' for Active; 'I' for Inactive)
ROOT
HETATM    1  C1  UNL     1     -32.493   6.997   2.818  1.00 20.00     0.066 C 
HETATM    2  C2  UNL     1     -34.290   5.694   6.347  1.00 20.00     0.032 C 
HETATM    3  C3  UNL     1     -34.040   6.802   5.336  1.00 20.00     0.039 C 
HETATM    4  C4  UNL     1     -33.908   5.150   1.993  1.00 20.00     0.051 C 
HETATM    5  C5  UNL     1     -33.956   4.442   5.551  1.00 20.00     0.273 C 
HETATM    6  C6  UNL     1     -33.716   4.150   3.125  1.00 20.00     0.274 C 
HETATM    7  C7  UNL     1     -33.874   6.504   2.703  1.00 20.00     0.128 C 
HETATM    8  C8  UNL     1     -34.553   6.189   4.039  1.00 20.00     0.240 C 
HETATM    9  N9  UNL     1     -31.403   7.385   2.909  1.00 20.00    -0.197 NA
HETATM   10  N10 UNL     1     -34.499   4.721   4.221  1.00 20.00     0.094 N 
ENDROOT
TORSDOF 0
