REMARK  1 active torsions:
REMARK  status: ('A' for Active; 'I' for Inactive)
REMARK    1  A    between atoms: C3_3  and  C5_5 
ROOT
HETATM    1  C1  UNL     1     -33.688   5.173   1.955  1.00 20.00     0.034 A 
HETATM    2  C2  UNL     1     -34.206   4.395   2.968  1.00 20.00     0.092 A 
HETATM    3  C3  UNL     1     -33.261   6.395   2.533  1.00 20.00     0.025 A 
HETATM    4  C4  UNL     1     -33.529   6.333   3.886  1.00 20.00     0.024 A 
HETATM    5  C6  UNL     1     -33.321   7.335   4.972  1.00 20.00     0.058 C 
HETATM    6  C7  UNL     1     -33.383   6.696   6.361  1.00 20.00     0.008 C 
HETATM    7  C8  UNL     1     -34.584   5.758   6.474  1.00 20.00     0.021 C 
HETATM    8  C9  UNL     1     -34.488   4.632   5.446  1.00 20.00     0.128 C 
HETATM    9  N10 UNL     1     -34.105   5.110   4.130  1.00 20.00    -0.359 N 
ENDROOT
BRANCH   3  10
HETATM   10  C5  UNL     1     -32.662   7.513   1.861  1.00 20.00     0.272 C 
HETATM   11  O11 UNL     1     -32.436   7.547   0.637  1.00 20.00    -0.301 OA
ENDBRANCH   3  10
TORSDOF 1
