REMARK  0 active torsions:
REMARK  status: ('A' for Active; 'I' for Inactive)
ROOT
HETATM    1  C1  UNL     1     -32.761   7.386   1.701  1.00 20.00     0.101 C 
HETATM    2  C2  UNL     1     -33.345   4.953   2.138  1.00 20.00     0.042 A 
HETATM    3  C3  UNL     1     -33.779   4.253   3.243  1.00 20.00     0.092 A 
HETATM    4  C4  UNL     1     -33.186   6.307   2.527  1.00 20.00     0.068 A 
HETATM    5  C5  UNL     1     -33.528   6.401   3.862  1.00 20.00     0.032 A 
HETATM    6  C6  UNL     1     -33.578   7.576   4.780  1.00 20.00     0.059 C 
HETATM    7  C7  UNL     1     -33.614   7.154   6.251  1.00 20.00     0.008 C 
HETATM    8  C8  UNL     1     -34.630   6.033   6.469  1.00 20.00     0.021 C 
HETATM    9  C9  UNL     1     -34.263   4.804   5.639  1.00 20.00     0.128 C 
HETATM   10  N10 UNL     1     -32.415   8.266   1.028  1.00 20.00    -0.191 NA
HETATM   11  N11 UNL     1     -33.888   5.141   4.278  1.00 20.00    -0.359 N 
ENDROOT
TORSDOF 0
