REMARK  0 active torsions:
REMARK  status: ('A' for Active; 'I' for Inactive)
ROOT
HETATM    1  C1  UNL     1     -34.016   7.227   4.918  1.00 20.00     0.027 A 
HETATM    2  C2  UNL     1     -34.489   6.756   6.136  1.00 20.00     0.116 A 
HETATM    3  C3  UNL     1     -34.664   4.578   5.379  1.00 20.00     0.123 A 
HETATM    4  C4  UNL     1     -33.864   6.290   3.915  1.00 20.00    -0.045 A 
HETATM    5  C5  UNL     1     -34.190   4.951   4.143  1.00 20.00    -0.034 A 
HETATM    6  C6  UNL     1     -33.997   4.123   2.918  1.00 20.00     0.041 C 
HETATM    7  C7  UNL     1     -33.069   5.033   2.098  1.00 20.00     0.014 C 
HETATM    8  C8  UNL     1     -33.422   6.484   2.491  1.00 20.00     0.015 C 
HETATM    9  C9  UNL     1     -32.249   7.434   2.303  1.00 20.00     0.015 C 
HETATM   10  N10 UNL     1     -34.815   5.461   6.393  1.00 20.00    -0.273 NA
ENDROOT
TORSDOF 0
