REMARK  2 active torsions:
REMARK  status: ('A' for Active; 'I' for Inactive)
REMARK    1  A    between atoms: C1_1  and  C8_8 
REMARK    2  A    between atoms: C5_5  and  C8_8 
ROOT
HETATM    1  C2  UNL     1     -34.160   5.984   5.656  1.00 20.00     0.003 C 
HETATM    2  C3  UNL     1     -33.303   6.953   4.817  1.00 20.00     0.007 C 
HETATM    3  C4  UNL     1     -34.950   4.954   4.845  1.00 20.00     0.034 C 
HETATM    4  C5  UNL     1     -33.443   6.773   3.295  1.00 20.00     0.023 C 
HETATM    5  C6  UNL     1     -34.090   4.356   3.780  1.00 20.00     0.151 A 
HETATM    6  C7  UNL     1     -33.287   5.317   2.952  1.00 20.00     0.155 A 
HETATM    7  O10 UNL     1     -34.459   4.678   2.435  1.00 20.00    -0.375 OA
ENDROOT
BRANCH   4   8
HETATM    8  C8  UNL     1     -32.430   7.631   2.543  1.00 20.00     0.076 C 
BRANCH   8   9
HETATM    9  C1  UNL     1     -32.838   7.878   1.117  1.00 20.00     0.231 C 
HETATM   10  O9  UNL     1     -33.022   8.983   0.616  1.00 20.00    -0.307 OA
ENDBRANCH   8   9
ENDBRANCH   4   8
TORSDOF 2
