REMARK  1 active torsions:
REMARK  status: ('A' for Active; 'I' for Inactive)
REMARK    1  A    between atoms: C1_1  and  C5_5 
ROOT
HETATM    1  C2  UNL     1     -33.244   7.194   5.048  1.00 20.00     0.022 C 
HETATM    2  C3  UNL     1     -34.458   6.439   5.618  1.00 20.00     0.011 C 
HETATM    3  C4  UNL     1     -34.869   6.930   3.306  1.00 20.00     0.031 C 
HETATM    4  C5  UNL     1     -33.350   6.740   3.590  1.00 20.00     0.057 C 
HETATM    5  C6  UNL     1     -34.950   5.745   4.329  1.00 20.00    -0.035 C 
HETATM    6  C7  UNL     1     -33.654   5.182   3.572  1.00 20.00    -0.023 C 
HETATM    7  C8  UNL     1     -36.207   4.933   4.457  1.00 20.00     0.016 C 
HETATM    8  C9  UNL     1     -32.716   4.280   4.390  1.00 20.00     0.017 C 
HETATM    9  C10 UNL     1     -33.856   4.498   2.205  1.00 20.00     0.017 C 
ENDROOT
BRANCH   4  10
HETATM   10  C1  UNL     1     -32.368   7.299   2.650  1.00 20.00     0.182 C 
HETATM   11  O11 UNL     1     -32.714   8.374   2.086  1.00 20.00    -0.647 OA
HETATM   12  O12 UNL     1     -31.306   6.627   2.532  1.00 20.00    -0.647 OA
ENDBRANCH   4  10
TORSDOF 1
