REMARK  1 active torsions:
REMARK  status: ('A' for Active; 'I' for Inactive)
REMARK    1  A    between atoms: C4_4  and  C6_6 
ROOT
HETATM    1  C1  UNL     1     -35.071   5.071   5.191  1.00 20.00     0.280 C 
HETATM    2  C2  UNL     1     -34.510   5.730   6.446  1.00 20.00     0.104 C 
HETATM    3  C3  UNL     1     -33.063   7.228   4.672  1.00 20.00     0.109 C 
HETATM    4  C4  UNL     1     -33.789   6.401   3.605  1.00 20.00     0.229 C 
HETATM    5  N7  UNL     1     -34.115   5.051   4.083  1.00 20.00     0.089 N 
HETATM    6  S8  UNL     1     -34.090   7.470   6.150  1.00 20.00    -0.165 SA
HETATM    7  H21 UNL     1     -33.261   4.581   4.383  1.00 20.00     0.316 HD
ENDROOT
BRANCH   4   8
HETATM    8  C6  UNL     1     -32.902   6.270   2.364  1.00 20.00     0.032 C 
HETATM    9  C5  UNL     1     -32.562   7.604   1.789  1.00 20.00     0.007 C 
ENDBRANCH   4   8
TORSDOF 1
