REMARK  0 active torsions:
REMARK  status: ('A' for Active; 'I' for Inactive)
ROOT
HETATM    1  C1  UNL     1     -34.413   6.663   2.988  1.00 20.00     0.147 C 
HETATM    2  C2  UNL     1     -32.958   6.696   3.417  1.00 20.00     0.085 C 
HETATM    3  C3  UNL     1     -33.825   7.463   5.631  1.00 20.00     0.008 C 
HETATM    4  C4  UNL     1     -35.279   7.420   5.107  1.00 20.00     0.030 C 
HETATM    5  C5  UNL     1     -33.150   6.273   4.897  1.00 20.00     0.002 C 
HETATM    6  C6  UNL     1     -35.250   6.205   4.172  1.00 20.00     0.086 C 
HETATM    7  C7  UNL     1     -34.284   5.207   4.843  1.00 20.00    -0.019 C 
HETATM    8  C8  UNL     1     -33.929   3.960   4.007  1.00 20.00     0.017 C 
HETATM    9  C9  UNL     1     -34.716   4.701   6.234  1.00 20.00     0.017 C 
HETATM   10  O10 UNL     1     -34.815   6.986   1.881  1.00 20.00    -0.296 OA
HETATM   11 BR11 UNL     1     -36.952   5.557   3.653  1.00 20.00    -0.076 Br
ENDROOT
TORSDOF 0
