REMARK  1 active torsions:
REMARK  status: ('A' for Active; 'I' for Inactive)
REMARK    1  A    between atoms: C3_3  and  O10_10 
ROOT
HETATM    1  C1  UNL     1     -32.063   7.087   3.585  1.00 20.00     0.041 C 
HETATM    2  C2  UNL     1     -34.099   6.734   2.237  1.00 20.00     0.020 C 
HETATM    3  C3  UNL     1     -33.069   6.238   4.360  1.00 20.00     0.126 C 
HETATM    4  C4  UNL     1     -32.837   7.627   2.359  1.00 20.00    -0.045 C 
HETATM    5  C5  UNL     1     -33.937   5.591   3.264  1.00 20.00    -0.021 C 
HETATM    6  C6  UNL     1     -31.973   7.547   1.092  1.00 20.00     0.015 C 
HETATM    7  C7  UNL     1     -33.243   9.094   2.575  1.00 20.00     0.015 C 
HETATM    8  C8  UNL     1     -35.305   5.115   3.771  1.00 20.00     0.017 C 
HETATM    9  C9  UNL     1     -33.211   4.389   2.631  1.00 20.00     0.017 C 
ENDROOT
BRANCH   3  10
HETATM   10  O10 UNL     1     -33.826   7.103   5.201  1.00 20.00    -0.395 OA
HETATM   11  H28 UNL     1     -33.197   7.540   5.801  1.00 20.00     0.210 HD
ENDBRANCH   3  10
TORSDOF 1
