REMARK  3 active torsions:
REMARK  status: ('A' for Active; 'I' for Inactive)
REMARK    1  A    between atoms: C1_1  and  C6_6 
REMARK    2  A    between atoms: C1_1  and  O8_8 
REMARK    3  A    between atoms: C4_4  and  C6_6 
ROOT
HETATM    1  C6  UNL     1     -33.670   4.929   3.613  1.00 20.00     0.115 C 
ENDROOT
BRANCH   1   2
HETATM    2  C1  UNL     1     -34.694   4.618   4.691  1.00 20.00     0.139 C 
HETATM    3  O7  UNL     1     -34.484   4.661   5.894  1.00 20.00    -0.650 OA
BRANCH   2   4
HETATM    4  O8  UNL     1     -35.891   4.282   4.145  1.00 20.00    -0.776 OA
HETATM    5  H18 UNL     1     -36.562   4.079   4.831  1.00 20.00     0.167 HD
ENDBRANCH   2   4
ENDBRANCH   1   2
BRANCH   1   6
HETATM    6  C4  UNL     1     -33.618   6.374   3.258  1.00 20.00    -0.001 A 
HETATM    7  C2  UNL     1     -32.792   7.327   4.081  1.00 20.00     0.010 A 
HETATM    8  C3  UNL     1     -32.357   6.967   2.684  1.00 20.00    -0.014 A 
HETATM    9  C5  UNL     1     -32.436   7.977   1.592  1.00 20.00     0.010 C 
ENDBRANCH   1   6
TORSDOF 3
