REMARK  1 active torsions:
REMARK  status: ('A' for Active; 'I' for Inactive)
REMARK    1  A    between atoms: C8_8  and  N10_10 
ROOT
HETATM    1  C1  UNL     1     -33.019   9.804   0.733  1.00 20.00     0.013 C 
HETATM    2  C2  UNL     1     -32.824   8.656   1.026  1.00 20.00    -0.087 C 
HETATM    3  C8  UNL     1     -32.582   7.256   1.380  1.00 20.00     0.365 C 
ENDROOT
BRANCH   3   4
HETATM    4  N10 UNL     1     -33.495   6.825   2.436  1.00 20.00     0.102 N 
HETATM    5  C5  UNL     1     -33.600   5.361   2.470  1.00 20.00     0.303 C 
HETATM    6  C3  UNL     1     -34.556   4.908   3.579  1.00 20.00     0.302 C 
HETATM    7  N9  UNL     1     -34.125   5.422   4.884  1.00 20.00     0.087 N 
HETATM    8  C4  UNL     1     -34.019   6.886   4.850  1.00 20.00     0.302 C 
HETATM    9  C7  UNL     1     -35.040   4.992   5.939  1.00 20.00     0.310 C 
HETATM   10  C6  UNL     1     -33.062   7.338   3.741  1.00 20.00     0.303 C 
ENDBRANCH   3   4
TORSDOF 1
