REMARK  3 active torsions:
REMARK  status: ('A' for Active; 'I' for Inactive)
REMARK    1  A    between atoms: C1_1  and  C4_4 
REMARK    2  A    between atoms: C2_2  and  C9_9 
REMARK    3  A    between atoms: C9_9  and  N10_10 
ROOT
HETATM    1  C5  UNL     1     -34.259   4.902   5.837  1.00 20.00     0.032 C 
HETATM    2  C6  UNL     1     -34.458   4.245   4.478  1.00 20.00     0.032 C 
HETATM    3  C7  UNL     1     -34.501   6.386   5.604  1.00 20.00     0.273 C 
HETATM    4  C8  UNL     1     -34.803   5.384   3.529  1.00 20.00     0.273 C 
HETATM    5  N10 UNL     1     -34.316   6.615   4.165  1.00 20.00     0.099 N 
ENDROOT
BRANCH   5   6
HETATM    6  C9  UNL     1     -32.887   6.813   3.861  1.00 20.00     0.366 C 
BRANCH   6   7
HETATM    7  C2  UNL     1     -32.715   7.494   2.574  1.00 20.00    -0.072 C 
HETATM    8  C1  UNL     1     -32.569   8.051   1.520  1.00 20.00    -0.078 C 
BRANCH   8   9
HETATM    9  C4  UNL     1     -32.390   8.708   0.274  1.00 20.00     0.054 C 
HETATM   10  C3  UNL     1     -33.425   9.160  -0.441  1.00 20.00     0.020 C 
ENDBRANCH   8   9
ENDBRANCH   6   7
ENDBRANCH   5   6
TORSDOF 3
