REMARK  0 active torsions:
REMARK  status: ('A' for Active; 'I' for Inactive)
ROOT
HETATM    1  C1  UNL     1     -32.864   7.204   2.638  1.00 20.00     0.124 C 
HETATM    2  C2  UNL     1     -33.297   7.167   4.994  1.00 20.00     0.021 C 
HETATM    3  C3  UNL     1     -33.497   6.636   3.776  1.00 20.00     0.145 C 
HETATM    4  C4  UNL     1     -33.891   6.575   6.234  1.00 20.00     0.033 C 
HETATM    5  C5  UNL     1     -34.470   5.191   5.958  1.00 20.00     0.031 C 
HETATM    6  C6  UNL     1     -35.180   5.189   4.611  1.00 20.00     0.176 C 
HETATM    7  N7  UNL     1     -32.346   7.668   1.709  1.00 20.00    -0.189 NA
HETATM    8  O8  UNL     1     -34.295   5.534   3.538  1.00 20.00    -0.341 OA
ENDROOT
TORSDOF 0
