REMARK  0 active torsions:
REMARK  status: ('A' for Active; 'I' for Inactive)
ROOT
HETATM    1  C1  UNL     1     -33.677   4.615   2.740  1.00 20.00     0.011 A 
HETATM    2  C2  UNL     1     -33.154   5.435   1.740  1.00 20.00     0.024 A 
HETATM    3  C3  UNL     1     -33.184   7.312   3.259  1.00 20.00     0.031 A 
HETATM    4  C4  UNL     1     -33.966   5.139   4.007  1.00 20.00    -0.024 A 
HETATM    5  C5  UNL     1     -33.700   6.494   4.273  1.00 20.00    -0.047 A 
HETATM    6  C6  UNL     1     -32.910   6.782   1.999  1.00 20.00     0.034 A 
HETATM    7  C7  UNL     1     -34.027   7.080   5.623  1.00 20.00     0.069 C 
HETATM    8  C8  UNL     1     -34.496   4.236   5.093  1.00 20.00     0.308 C 
HETATM    9  C9  UNL     1     -34.221   6.009   6.698  1.00 20.00     0.274 C 
HETATM   10  N10 UNL     1     -35.115   4.959   6.209  1.00 20.00     0.087 N 
HETATM   11 CL11 UNL     1     -32.271   7.793   0.761  1.00 20.00    -0.084 Cl
HETATM   12  H21 UNL     1     -35.989   5.381   5.894  1.00 20.00     0.316 HD
ENDROOT
TORSDOF 0
