REMARK  2 active torsions:
REMARK  status: ('A' for Active; 'I' for Inactive)
REMARK    1  A    between atoms: C2_2  and  C3_3 
REMARK    2  A    between atoms: C3_3  and  O10_10 
ROOT
HETATM    1  C1  UNL     1     -33.696   5.986   3.926  1.00 20.00    -0.067 C 
HETATM    2  C2  UNL     1     -33.117   6.003   2.720  1.00 20.00     0.014 C 
HETATM    3  C4  UNL     1     -34.502   4.841   4.469  1.00 20.00     0.035 C 
HETATM    4  C5  UNL     1     -33.628   7.109   4.921  1.00 20.00     0.035 C 
HETATM    5  C6  UNL     1     -34.653   5.196   5.944  1.00 20.00     0.005 C 
HETATM    6  C7  UNL     1     -34.681   6.719   5.951  1.00 20.00     0.005 C 
HETATM    7  C8  UNL     1     -33.214   4.856   1.760  1.00 20.00     0.056 C 
ENDROOT
BRANCH   2   8
HETATM    8  C3  UNL     1     -32.355   7.223   2.346  1.00 20.00     0.171 C 
HETATM    9  O9  UNL     1     -31.387   7.666   2.945  1.00 20.00    -0.646 OA
BRANCH   8  10
HETATM   10  O10 UNL     1     -32.877   7.793   1.234  1.00 20.00    -0.773 OA
HETATM   11  H22 UNL     1     -32.386   8.600   0.970  1.00 20.00     0.167 HD
ENDBRANCH   8  10
ENDBRANCH   2   8
TORSDOF 2
