REMARK  1 active torsions:
REMARK  status: ('A' for Active; 'I' for Inactive)
REMARK    1  A    between atoms: C6_6  and  N8_8 
ROOT
HETATM    1  C1  UNL     1     -33.566   7.458   5.842  1.00 20.00     0.137 A 
HETATM    2  C2  UNL     1     -33.063   7.538   4.565  1.00 20.00     0.113 A 
HETATM    3  C3  UNL     1     -34.255   5.706   4.848  1.00 20.00     0.203 A 
HETATM    4  N7  UNL     1     -34.307   6.315   6.012  1.00 20.00    -0.231 NA
HETATM    5  N8  UNL     1     -33.512   6.408   3.941  1.00 20.00    -0.327 N 
HETATM    6 CL9  UNL     1     -34.986   4.228   4.440  1.00 20.00    -0.043 Cl
ENDROOT
BRANCH   5   7
HETATM    7  C6  UNL     1     -33.228   6.047   2.546  1.00 20.00     0.083 C 
HETATM    8  C4  UNL     1     -32.558   4.676   2.434  1.00 20.00     0.032 C 
HETATM    9  C5  UNL     1     -32.420   7.129   1.827  1.00 20.00     0.032 C 
ENDBRANCH   5   7
TORSDOF 1
