REMARK  1 active torsions:
REMARK  status: ('A' for Active; 'I' for Inactive)
REMARK    1  A    between atoms: C5_5  and  O7_7 
ROOT
HETATM    1  C1  UNL     1     -33.354   6.061   5.247  1.00 20.00     0.037 C 
HETATM    2  C2  UNL     1     -35.183   5.232   3.711  1.00 20.00     0.037 C 
HETATM    3  C3  UNL     1     -32.888   7.035   4.171  1.00 20.00     0.081 C 
HETATM    4  C4  UNL     1     -34.721   6.204   2.631  1.00 20.00     0.081 C 
HETATM    5  C5  UNL     1     -34.843   5.743   5.112  1.00 20.00     0.118 C 
HETATM    6  C6  UNL     1     -33.245   6.538   2.780  1.00 20.00     0.243 C 
HETATM    7  F8  UNL     1     -32.900   7.476   1.862  1.00 20.00    -0.206 F 
HETATM    8  F9  UNL     1     -32.507   5.433   2.497  1.00 20.00    -0.206 F 
ENDROOT
BRANCH   5   9
HETATM    9  O7  UNL     1     -35.186   4.755   6.078  1.00 20.00    -0.396 OA
HETATM   10  H19 UNL     1     -36.133   4.576   5.968  1.00 20.00     0.210 HD
ENDBRANCH   5   9
TORSDOF 1
