REMARK  3 active torsions:
REMARK  status: ('A' for Active; 'I' for Inactive)
REMARK    1  A    between atoms: C1_1  and  C3_3 
REMARK    2  A    between atoms: C2_2  and  C5_5 
REMARK    3  A    between atoms: C4_4  and  C7_7 
ROOT
HETATM    1  C1  UNL     1     -32.961   7.095   4.583  1.00 20.00     0.000 C 
HETATM    2  C2  UNL     1     -33.191   6.885   5.889  1.00 20.00    -0.000 C 
ENDROOT
BRANCH   1   3
HETATM    3  C3  UNL     1     -31.754   7.720   4.084  1.00 20.00     0.004 C 
HETATM    4  C4  UNL     1     -31.534   7.925   2.779  1.00 20.00     0.049 C 
BRANCH   4   5
HETATM    5  C7  UNL     1     -32.544   7.511   1.766  1.00 20.00     0.145 C 
HETATM    6  C9  UNL     1     -33.111   8.601   0.895  1.00 20.00     0.096 C 
HETATM    7  O10 UNL     1     -32.884   6.339   1.620  1.00 20.00    -0.294 OA
ENDBRANCH   4   5
ENDBRANCH   1   3
BRANCH   2   8
HETATM    8  C5  UNL     1     -34.400   6.261   6.380  1.00 20.00    -0.004 C 
HETATM    9  C6  UNL     1     -35.047   5.219   5.835  1.00 20.00    -0.031 C 
HETATM   10  C8  UNL     1     -34.695   4.445   4.606  1.00 20.00     0.036 C 
ENDBRANCH   2   8
TORSDOF 3
