REMARK  1 active torsions:
REMARK  status: ('A' for Active; 'I' for Inactive)
REMARK    1  A    between atoms: C2_2  and  C10_10 
ROOT
HETATM    1  C1  UNL     1     -32.813   7.608   3.705  1.00 20.00    -0.022 C 
HETATM    2  C2  UNL     1     -33.154   6.955   2.580  1.00 20.00    -0.073 C 
HETATM    3  C3  UNL     1     -33.938   5.027   3.986  1.00 20.00     0.134 C 
HETATM    4  C4  UNL     1     -33.093   7.089   5.084  1.00 20.00     0.039 C 
HETATM    5  C5  UNL     1     -33.829   5.611   2.588  1.00 20.00     0.113 C 
HETATM    6  C6  UNL     1     -34.188   6.019   5.113  1.00 20.00     0.055 C 
HETATM    7  C7  UNL     1     -34.251   5.340   6.477  1.00 20.00     0.018 C 
HETATM    8  O11 UNL     1     -33.919   3.809   4.163  1.00 20.00    -0.297 OA
ENDROOT
BRANCH   2   9
HETATM    9  C10 UNL     1     -32.865   7.529   1.223  1.00 20.00     0.006 C 
HETATM   10  C8  UNL     1     -33.598   8.853   1.044  1.00 20.00     0.014 C 
HETATM   11  C9  UNL     1     -31.363   7.703   1.020  1.00 20.00     0.014 C 
ENDBRANCH   2   9
TORSDOF 1
