REMARK  3 active torsions:
REMARK  status: ('A' for Active; 'I' for Inactive)
REMARK    1  A    between atoms: C1_1  and  C3_3 
REMARK    2  A    between atoms: C2_2  and  C5_5 
REMARK    3  A    between atoms: C4_4  and  C7_7 
ROOT
HETATM    1  C1  UNL     1     -33.427   6.049   3.675  1.00 20.00     0.000 C 
HETATM    2  C2  UNL     1     -33.298   6.330   2.369  1.00 20.00    -0.000 C 
ENDROOT
BRANCH   1   3
HETATM    3  C3  UNL     1     -33.248   7.038   4.715  1.00 20.00     0.003 C 
HETATM    4  C4  UNL     1     -33.379   6.751   6.016  1.00 20.00     0.041 C 
BRANCH   4   5
HETATM    5  C7  UNL     1     -33.720   5.371   6.414  1.00 20.00     0.258 C 
HETATM    6  O9  UNL     1     -34.755   4.828   6.045  1.00 20.00    -0.302 OA
ENDBRANCH   4   5
ENDBRANCH   1   3
BRANCH   2   7
HETATM    7  C5  UNL     1     -32.966   7.648   1.875  1.00 20.00    -0.004 C 
HETATM    8  C6  UNL     1     -32.836   7.931   0.571  1.00 20.00    -0.031 C 
HETATM    9  C8  UNL     1     -32.494   9.288   0.048  1.00 20.00     0.036 C 
ENDBRANCH   2   7
TORSDOF 3
