REMARK  1 active torsions:
REMARK  status: ('A' for Active; 'I' for Inactive)
REMARK    1  A    between atoms: C1_1  and  C2_2 
ROOT
HETATM    1  C1  UNL     1     -34.355   5.351   4.495  1.00 20.00     0.326 C 
HETATM    2  O3  UNL     1     -34.472   4.352   3.801  1.00 20.00    -0.257 OA
HETATM    3  F4  UNL     1     -33.787   6.426   3.933  1.00 20.00    -0.162 F 
ENDROOT
BRANCH   1   4
HETATM    4  C2  UNL     1     -34.795   5.469   5.916  1.00 20.00     0.338 C 
HETATM    5  F5  UNL     1     -34.537   6.706   6.414  1.00 20.00    -0.245 F 
ENDBRANCH   1   4
TORSDOF 1
