REMARK  1 active torsions:
REMARK  status: ('A' for Active; 'I' for Inactive)
REMARK    1  A    between atoms: C4_4  and  O11_11 
ROOT
HETATM    1  C1  UNL     1     -33.769   4.070   5.181  1.00 20.00    -0.021 C 
HETATM    2  C2  UNL     1     -33.688   4.863   6.263  1.00 20.00    -0.025 C 
HETATM    3  C3  UNL     1     -33.758   6.020   3.695  1.00 20.00    -0.043 C 
HETATM    4  C4  UNL     1     -33.260   6.241   2.476  1.00 20.00     0.045 C 
HETATM    5  C5  UNL     1     -33.655   6.951   4.897  1.00 20.00     0.046 C 
HETATM    6  C6  UNL     1     -35.557   5.529   5.074  1.00 20.00     0.022 C 
HETATM    7  C7  UNL     1     -34.571   4.817   4.141  1.00 20.00     0.040 C 
HETATM    8  C8  UNL     1     -34.450   6.135   5.946  1.00 20.00     0.013 C 
HETATM    9  C9  UNL     1     -33.397   5.282   1.336  1.00 20.00     0.076 C 
ENDROOT
BRANCH   4  10
HETATM   10  O11 UNL     1     -32.571   7.410   2.207  1.00 20.00    -0.360 OA
HETATM   11  C10 UNL     1     -33.174   8.168   1.187  1.00 20.00     0.209 C 
ENDBRANCH   4  10
TORSDOF 1
