REMARK  0 active torsions:
REMARK  status: ('A' for Active; 'I' for Inactive)
ROOT
HETATM    1  C1  UNL     1     -34.219   6.217   5.249  1.00 20.00     0.063 C 
HETATM    2  C2  UNL     1     -33.221   5.897   3.052  1.00 20.00     0.167 C 
HETATM    3  C3  UNL     1     -34.317   3.676   4.128  1.00 20.00     0.112 C 
HETATM    4  C4  UNL     1     -34.396   7.113   6.449  1.00 20.00     0.078 C 
HETATM    5  C5  UNL     1     -33.185   6.917   1.914  1.00 20.00     0.046 C 
HETATM    6  C6  UNL     1     -35.079   2.362   3.997  1.00 20.00     0.033 C 
HETATM    7  N7  UNL     1     -33.493   6.639   4.281  1.00 20.00    -0.272 NA
HETATM    8  S8  UNL     1     -35.103   4.709   5.385  1.00 20.00    -0.100 SA
HETATM    9  S9  UNL     1     -34.304   4.532   2.537  1.00 20.00    -0.127 SA
ENDROOT
TORSDOF 0
