REMARK  0 active torsions:
REMARK  status: ('A' for Active; 'I' for Inactive)
ROOT
HETATM    1  C1  UNL     1     -32.817   7.149   4.588  1.00 20.00     0.302 C 
HETATM    2  C2  UNL     1     -33.700   7.202   5.815  1.00 20.00     0.201 C 
HETATM    3  C3  UNL     1     -34.467   5.548   4.417  1.00 20.00     0.253 C 
HETATM    4  C4  UNL     1     -35.933   5.560   3.975  1.00 20.00     0.081 C 
HETATM    5  C5  UNL     1     -33.926   4.112   4.394  1.00 20.00     0.081 C 
HETATM    6  C6  UNL     1     -33.036   6.055   2.438  1.00 20.00     0.314 C 
HETATM    7  N7  UNL     1     -33.723   6.537   3.623  1.00 20.00     0.120 N 
HETATM    8  O8  UNL     1     -34.432   5.970   5.800  1.00 20.00    -0.351 OA
ENDROOT
TORSDOF 0
