REMARK  1 active torsions:
REMARK  status: ('A' for Active; 'I' for Inactive)
REMARK    1  A    between atoms: C8_8  and  N9_9 
ROOT
HETATM    1  C1  UNL     1     -33.223   8.045   0.446  1.00 20.00     0.013 C 
HETATM    2  C2  UNL     1     -32.940   7.798   1.587  1.00 20.00    -0.087 C 
HETATM    3  C8  UNL     1     -32.590   7.500   2.977  1.00 20.00     0.364 C 
ENDROOT
BRANCH   3   4
HETATM    4  N9  UNL     1     -33.704   6.844   3.661  1.00 20.00     0.099 N 
HETATM    5  C6  UNL     1     -33.561   6.971   5.118  1.00 20.00     0.273 C 
HETATM    6  C4  UNL     1     -34.743   6.332   5.847  1.00 20.00     0.030 C 
HETATM    7  C3  UNL     1     -34.921   4.873   5.444  1.00 20.00     0.003 C 
HETATM    8  C5  UNL     1     -34.986   4.745   3.926  1.00 20.00     0.030 C 
HETATM    9  C7  UNL     1     -33.796   5.434   3.257  1.00 20.00     0.273 C 
ENDBRANCH   3   4
TORSDOF 1
