REMARK  2 active torsions:
REMARK  status: ('A' for Active; 'I' for Inactive)
REMARK    1  A    between atoms: C8_8  and  C9_9 
REMARK    2  A    between atoms: C9_9  and  N11_11 
ROOT
HETATM    1  C1  UNL     1     -35.915   4.913   4.575  1.00 20.00     0.064 C 
HETATM    2  C2  UNL     1     -34.229   6.666   4.998  1.00 20.00     0.047 C 
HETATM    3  C3  UNL     1     -33.995   5.098   3.033  1.00 20.00     0.047 C 
HETATM    4  C4  UNL     1     -32.770   7.074   4.835  1.00 20.00     0.236 C 
HETATM    5  C5  UNL     1     -32.539   5.515   2.883  1.00 20.00     0.236 C 
HETATM    6  C6  UNL     1     -34.484   5.247   4.478  1.00 20.00     0.096 C 
HETATM    7  N10 UNL     1     -37.042   4.650   4.651  1.00 20.00    -0.197 NA
HETATM    8  N11 UNL     1     -32.321   6.915   3.403  1.00 20.00    -0.071 N 
HETATM    9  H28 UNL     1     -31.268   7.049   3.421  1.00 20.00     0.279 HD
ENDROOT
BRANCH   8  10
HETATM   10  C9  UNL     1     -32.835   7.990   2.484  1.00 20.00     0.234 C 
BRANCH  10  11
HETATM   11  C8  UNL     1     -32.349   7.710   1.071  1.00 20.00     0.023 C 
HETATM   12  C7  UNL     1     -32.804   8.795   0.108  1.00 20.00     0.007 C 
ENDBRANCH  10  11
ENDBRANCH   8  10
TORSDOF 2
