REMARK  1 active torsions:
REMARK  status: ('A' for Active; 'I' for Inactive)
REMARK    1  A    between atoms: C9_9  and  N11_11 
ROOT
HETATM    1  C1  UNL     1     -31.135   7.460   2.953  1.00 20.00     0.102 C 
HETATM    2  C2  UNL     1     -32.176   8.640   0.358  1.00 20.00     0.007 C 
HETATM    3  C5  UNL     1     -33.025   8.586   1.648  1.00 20.00     0.058 C 
HETATM    4  C6  UNL     1     -31.908   7.129   0.540  1.00 20.00     0.058 C 
HETATM    5  C9  UNL     1     -32.238   7.315   2.038  1.00 20.00     0.246 C 
HETATM    6  N10 UNL     1     -30.246   7.576   3.690  1.00 20.00    -0.194 NA
ENDROOT
BRANCH   5   7
HETATM    7  N11 UNL     1     -33.176   6.270   2.463  1.00 20.00     0.112 N 
HETATM    8  C7  UNL     1     -32.504   4.972   2.548  1.00 20.00     0.275 C 
HETATM    9  C3  UNL     1     -33.452   4.154   3.413  1.00 20.00     0.032 C 
HETATM   10  C4  UNL     1     -34.217   5.178   4.245  1.00 20.00     0.032 C 
HETATM   11  C8  UNL     1     -33.665   6.530   3.818  1.00 20.00     0.275 C 
ENDBRANCH   5   7
TORSDOF 1
