REMARK  0 active torsions:
REMARK  status: ('A' for Active; 'I' for Inactive)
ROOT
HETATM    1  C1  UNL     1     -34.333   7.216   2.047  1.00 20.00     0.085 C 
HETATM    2  C2  UNL     1     -35.980   5.903   3.160  1.00 20.00     0.085 C 
HETATM    3  C3  UNL     1     -33.929   6.671   4.481  1.00 20.00     0.030 A 
HETATM    4  C4  UNL     1     -34.616   6.352   3.163  1.00 20.00     0.148 A 
HETATM    5  C5  UNL     1     -33.511   5.433   3.706  1.00 20.00    -0.007 A 
HETATM    6  C6  UNL     1     -34.626   6.599   5.798  1.00 20.00     0.014 C 
HETATM    7  C7  UNL     1     -32.136   5.462   3.071  1.00 20.00     0.018 C 
HETATM    8  C8  UNL     1     -33.866   4.057   4.228  1.00 20.00     0.018 C 
HETATM    9  N9  UNL     1     -34.106   7.912   1.148  1.00 20.00    -0.195 NA
HETATM   10  N10 UNL     1     -37.082   5.540   3.158  1.00 20.00    -0.195 NA
ENDROOT
TORSDOF 0
