REMARK  2 active torsions:
REMARK  status: ('A' for Active; 'I' for Inactive)
REMARK    1  A    between atoms: C1_1  and  O6_6 
REMARK    2  A    between atoms: C4_4  and  O6_6 
ROOT
HETATM    1  O6  UNL     1     -33.785   6.912   4.107  1.00 20.00    -0.301 OA
ENDROOT
BRANCH   1   2
HETATM    2  C1  UNL     1     -33.019   6.475   3.067  1.00 20.00     0.256 C 
HETATM    3  C2  UNL     1     -32.409   7.652   2.369  1.00 20.00     0.126 C 
HETATM    4  O5  UNL     1     -32.840   5.312   2.733  1.00 20.00    -0.266 OA
ENDBRANCH   1   2
BRANCH   1   5
HETATM    5  C4  UNL     1     -34.453   5.912   4.894  1.00 20.00     0.223 C 
HETATM    6  C3  UNL     1     -35.761   5.511   4.231  1.00 20.00     0.057 C 
HETATM    7 CL7  UNL     1     -34.787   6.616   6.500  1.00 20.00    -0.095 Cl
ENDBRANCH   1   5
TORSDOF 2
