REMARK  1 active torsions:
REMARK  status: ('A' for Active; 'I' for Inactive)
REMARK    1  A    between atoms: C3_3  and  C8_8 
ROOT
HETATM    1  C1  UNL     1     -33.676   6.481   4.985  1.00 20.00     0.017 C 
HETATM    2  C2  UNL     1     -34.399   5.293   4.371  1.00 20.00     0.092 C 
HETATM    3  C3  UNL     1     -32.523   6.480   3.033  1.00 20.00     0.173 C 
HETATM    4  C4  UNL     1     -34.071   6.939   6.361  1.00 20.00     0.066 C 
HETATM    5  C5  UNL     1     -35.846   5.629   4.052  1.00 20.00     0.028 C 
HETATM    6  N9  UNL     1     -32.750   7.121   4.339  1.00 20.00    -0.282 NA
HETATM    7  S10 UNL     1     -33.480   4.955   2.854  1.00 20.00    -0.131 SA
ENDROOT
BRANCH   3   8
HETATM    8  C8  UNL     1     -32.896   7.468   1.936  1.00 20.00     0.012 C 
HETATM    9  C6  UNL     1     -34.375   7.844   2.027  1.00 20.00     0.012 C 
HETATM   10  C7  UNL     1     -32.022   8.719   2.014  1.00 20.00     0.012 C 
ENDBRANCH   3   8
TORSDOF 1
