REMARK  2 active torsions:
REMARK  status: ('A' for Active; 'I' for Inactive)
REMARK    1  A    between atoms: C3_3  and  C10_10 
REMARK    2  A    between atoms: C7_7  and  C10_10 
ROOT
HETATM    1  C1  UNL     1     -34.747   5.369   3.744  1.00 20.00    -0.024 C 
HETATM    2  C2  UNL     1     -34.329   5.775   4.956  1.00 20.00    -0.087 C 
HETATM    3  C4  UNL     1     -34.146   5.845   2.454  1.00 20.00     0.032 C 
HETATM    4  C5  UNL     1     -33.178   6.735   5.122  1.00 20.00     0.034 C 
HETATM    5  C6  UNL     1     -32.356   6.940   3.845  1.00 20.00     0.010 C 
HETATM    6  C7  UNL     1     -33.264   7.093   2.621  1.00 20.00    -0.001 C 
HETATM    7  C8  UNL     1     -34.982   5.301   6.220  1.00 20.00     0.043 C 
ENDROOT
BRANCH   6   8
HETATM    8  C10 UNL     1     -32.446   7.351   1.357  1.00 20.00     0.047 C 
HETATM    9  C9  UNL     1     -31.218   8.196   1.668  1.00 20.00     0.017 C 
BRANCH   8  10
HETATM   10  C3  UNL     1     -33.336   8.007   0.320  1.00 20.00     0.235 C 
HETATM   11  O11 UNL     1     -33.110   9.092  -0.205  1.00 20.00    -0.306 OA
ENDBRANCH   8  10
ENDBRANCH   6   8
TORSDOF 2
