REMARK  2 active torsions:
REMARK  status: ('A' for Active; 'I' for Inactive)
REMARK    1  A    between atoms: C3_3  and  C10_10 
REMARK    2  A    between atoms: C7_7  and  C10_10 
ROOT
HETATM    1  C1  UNL     1     -32.802   6.744   1.457  1.00 20.00    -0.024 C 
HETATM    2  C2  UNL     1     -33.057   7.984   1.909  1.00 20.00    -0.087 C 
HETATM    3  C4  UNL     1     -32.478   5.580   2.350  1.00 20.00     0.032 C 
HETATM    4  C5  UNL     1     -33.012   8.324   3.378  1.00 20.00     0.034 C 
HETATM    5  C6  UNL     1     -32.373   7.233   4.244  1.00 20.00     0.010 C 
HETATM    6  C7  UNL     1     -32.806   5.820   3.833  1.00 20.00    -0.001 C 
HETATM    7  C8  UNL     1     -33.407   9.109   0.981  1.00 20.00     0.043 C 
ENDROOT
BRANCH   6   8
HETATM    8  C10 UNL     1     -34.290   5.575   4.128  1.00 20.00     0.047 C 
HETATM    9  C9  UNL     1     -34.712   4.183   3.677  1.00 20.00     0.017 C 
BRANCH   8  10
HETATM   10  C3  UNL     1     -34.539   5.788   5.608  1.00 20.00     0.235 C 
HETATM   11  O11 UNL     1     -34.500   4.903   6.456  1.00 20.00    -0.306 OA
ENDBRANCH   8  10
ENDBRANCH   6   8
TORSDOF 2
