REMARK  1 active torsions:
REMARK  status: ('A' for Active; 'I' for Inactive)
REMARK    1  A    between atoms: C3_3  and  C8_8 
ROOT
HETATM    1  C1  UNL     1     -33.794   6.761   4.673  1.00 20.00     0.017 C 
HETATM    2  C2  UNL     1     -34.797   5.739   4.163  1.00 20.00     0.092 C 
HETATM    3  C3  UNL     1     -32.690   6.274   2.754  1.00 20.00     0.173 C 
HETATM    4  C4  UNL     1     -34.054   7.441   5.988  1.00 20.00     0.066 C 
HETATM    5  C5  UNL     1     -34.809   4.492   5.033  1.00 20.00     0.028 C 
HETATM    6  N9  UNL     1     -32.715   7.043   4.008  1.00 20.00    -0.282 NA
HETATM    7  S10 UNL     1     -34.218   5.339   2.501  1.00 20.00    -0.131 SA
ENDROOT
BRANCH   3   8
HETATM    8  C8  UNL     1     -32.472   7.240   1.598  1.00 20.00     0.012 C 
HETATM    9  C6  UNL     1     -32.396   6.488   0.269  1.00 20.00     0.012 C 
HETATM   10  C7  UNL     1     -33.582   8.290   1.553  1.00 20.00     0.012 C 
ENDBRANCH   3   8
TORSDOF 1
