REMARK  3 active torsions:
REMARK  status: ('A' for Active; 'I' for Inactive)
REMARK    1  A    between atoms: C1_1  and  C6_6 
REMARK    2  A    between atoms: C1_1  and  O9_9 
REMARK    3  A    between atoms: C6_6  and  C7_7 
ROOT
HETATM    1  C2  UNL     1     -34.155   7.163   4.896  1.00 20.00     0.021 C 
HETATM    2  C6  UNL     1     -34.091   5.890   4.048  1.00 20.00     0.085 C 
ENDROOT
BRANCH   2   3
HETATM    3  C1  UNL     1     -34.472   4.692   4.907  1.00 20.00     0.262 C 
HETATM    4  O8  UNL     1     -34.689   4.741   6.111  1.00 20.00    -0.265 OA
BRANCH   3   5
HETATM    5  O9  UNL     1     -34.541   3.572   4.129  1.00 20.00    -0.326 OA
HETATM    6  C5  UNL     1     -34.900   2.367   4.813  1.00 20.00     0.213 C 
ENDBRANCH   3   5
ENDBRANCH   2   3
BRANCH   2   7
HETATM    7  C7  UNL     1     -32.723   5.715   3.347  1.00 20.00    -0.010 C 
HETATM    8  C3  UNL     1     -32.065   7.030   2.921  1.00 20.00     0.010 C 
HETATM    9  C4  UNL     1     -32.822   4.773   2.143  1.00 20.00     0.010 C 
ENDBRANCH   2   7
TORSDOF 3
