REMARK  3 active torsions:
REMARK  status: ('A' for Active; 'I' for Inactive)
REMARK    1  A    between atoms: C1_1  and  C3_3 
REMARK    2  A    between atoms: C2_2  and  C7_7 
REMARK    3  A    between atoms: C3_3  and  O9_9 
ROOT
HETATM    1  C1  UNL     1     -32.189   7.416   3.164  1.00 20.00     0.078 C 
HETATM    2  C2  UNL     1     -31.949   8.138   2.061  1.00 20.00    -0.017 C 
ENDROOT
BRANCH   1   3
HETATM    3  C3  UNL     1     -33.130   6.277   3.111  1.00 20.00     0.282 C 
HETATM    4  O8  UNL     1     -33.011   5.293   2.398  1.00 20.00    -0.260 OA
BRANCH   3   5
HETATM    5  O9  UNL     1     -34.136   6.532   3.991  1.00 20.00    -0.323 OA
HETATM    6  C6  UNL     1     -35.150   5.526   4.075  1.00 20.00     0.213 C 
ENDBRANCH   3   5
ENDBRANCH   1   3
BRANCH   2   7
HETATM    7  C7  UNL     1     -32.598   7.854   0.729  1.00 20.00    -0.000 C 
HETATM    8  C4  UNL     1     -33.430   9.056   0.280  1.00 20.00     0.013 C 
HETATM    9  C5  UNL     1     -31.535   7.517  -0.315  1.00 20.00     0.013 C 
ENDBRANCH   2   7
TORSDOF 3
