REMARK  1 active torsions:
REMARK  status: ('A' for Active; 'I' for Inactive)
REMARK    1  A    between atoms: C3_3  and  C4_4 
ROOT
HETATM    1  C1  UNL     1     -32.687   5.128   3.387  1.00 20.00    -0.018 A 
HETATM    2  C2  UNL     1     -33.633   4.177   3.311  1.00 20.00    -0.024 A 
HETATM    3  C4  UNL     1     -33.332   6.452   3.716  1.00 20.00     0.082 A 
HETATM    4  C5  UNL     1     -35.001   4.674   3.534  1.00 20.00     0.022 A 
HETATM    5  C6  UNL     1     -34.822   6.163   3.803  1.00 20.00     0.017 A 
HETATM    6  C7  UNL     1     -35.460   5.265   4.851  1.00 20.00    -0.035 A 
HETATM    7  C9  UNL     1     -36.951   5.405   5.048  1.00 20.00     0.016 C 
HETATM    8  C10 UNL     1     -34.728   4.950   6.131  1.00 20.00     0.016 C 
ENDROOT
BRANCH   3   9
HETATM    9  C3  UNL     1     -32.992   7.386   2.600  1.00 20.00     0.131 C 
HETATM   10  C8  UNL     1     -33.540   8.784   2.698  1.00 20.00     0.091 C 
HETATM   11  O11 UNL     1     -32.298   7.030   1.649  1.00 20.00    -0.298 OA
ENDBRANCH   3   9
TORSDOF 1
