REMARK  2 active torsions:
REMARK  status: ('A' for Active; 'I' for Inactive)
REMARK    1  A    between atoms: C2_2  and  C5_5 
REMARK    2  A    between atoms: C5_5  and  C6_6 
ROOT
HETATM    1  C1  UNL     1     -32.038   6.869   3.259  1.00 20.00     0.206 A 
HETATM    2  C2  UNL     1     -33.454   6.441   3.559  1.00 20.00     0.079 A 
HETATM    3  C3  UNL     1     -33.971   5.157   2.995  1.00 20.00     0.048 C 
HETATM    4  O7  UNL     1     -33.161   7.432   2.564  1.00 20.00    -0.375 OA
ENDROOT
BRANCH   2   5
HETATM    5  C5  UNL     1     -34.160   6.996   4.786  1.00 20.00     0.039 C 
BRANCH   5   6
HETATM    6  C6  UNL     1     -33.814   6.194   6.040  1.00 20.00    -0.002 C 
HETATM    7  C4  UNL     1     -34.249   4.743   5.911  1.00 20.00     0.005 C 
ENDBRANCH   5   6
ENDBRANCH   2   5
TORSDOF 2
