REMARK  2 active torsions:
REMARK  status: ('A' for Active; 'I' for Inactive)
REMARK    1  A    between atoms: C3_3  and  C8_8 
REMARK    2  A    between atoms: C4_4  and  O9_9 
ROOT
HETATM    1  C1  UNL     1     -33.727   5.914   5.310  1.00 20.00     0.037 C 
HETATM    2  C2  UNL     1     -35.264   5.452   3.904  1.00 20.00     0.037 C 
HETATM    3  C3  UNL     1     -34.090   6.461   3.908  1.00 20.00    -0.002 C 
HETATM    4  C4  UNL     1     -35.200   5.465   5.450  1.00 20.00     0.118 C 
ENDROOT
BRANCH   3   5
HETATM    5  C8  UNL     1     -33.047   6.293   2.823  1.00 20.00    -0.048 C 
HETATM    6  C5  UNL     1     -31.851   7.211   3.117  1.00 20.00     0.015 C 
HETATM    7  C6  UNL     1     -33.657   6.666   1.465  1.00 20.00     0.015 C 
HETATM    8  C7  UNL     1     -32.575   4.833   2.789  1.00 20.00     0.015 C 
ENDBRANCH   3   5
BRANCH   4   9
HETATM    9  O9  UNL     1     -35.412   4.203   6.103  1.00 20.00    -0.396 OA
HETATM   10  H25 UNL     1     -36.368   4.067   6.111  1.00 20.00     0.210 HD
ENDBRANCH   4   9
TORSDOF 2
