REMARK  2 active torsions:
REMARK  status: ('A' for Active; 'I' for Inactive)
REMARK    1  A    between atoms: C2_2  and  C5_5 
REMARK    2  A    between atoms: C5_5  and  C6_6 
ROOT
HETATM    1  C1  UNL     1     -33.403   6.290   2.651  1.00 20.00     0.223 C 
HETATM    2  C2  UNL     1     -34.076   5.469   3.411  1.00 20.00    -0.030 C 
HETATM    3  C3  UNL     1     -33.792   3.994   3.437  1.00 20.00     0.048 C 
HETATM    4  O7  UNL     1     -32.797   7.029   1.966  1.00 20.00    -0.284 OA
ENDROOT
BRANCH   2   5
HETATM    5  C5  UNL     1     -35.190   5.949   4.313  1.00 20.00     0.037 C 
BRANCH   5   6
HETATM    6  C6  UNL     1     -34.892   5.681   5.790  1.00 20.00    -0.000 C 
HETATM    7  C4  UNL     1     -33.607   6.366   6.229  1.00 20.00     0.005 C 
ENDBRANCH   5   6
ENDBRANCH   2   5
TORSDOF 2
