REMARK  4 active torsions:
REMARK  status: ('A' for Active; 'I' for Inactive)
REMARK    1  A    between atoms: C5_5  and  C6_6 
REMARK    2  A    between atoms: C5_5  and  C7_7 
REMARK    3  A    between atoms: C6_6  and  C8_8 
REMARK    4  A    between atoms: C7_7  and  O9_9 
ROOT
HETATM    1  C5  UNL     1     -33.942   5.785   3.181  1.00 20.00     0.032 C 
ENDROOT
BRANCH   1   2
HETATM    2  C6  UNL     1     -33.261   7.161   3.258  1.00 20.00     0.011 C 
BRANCH   2   3
HETATM    3  C8  UNL     1     -32.500   7.609   1.981  1.00 20.00    -0.051 C 
HETATM    4  C2  UNL     1     -31.022   7.901   2.287  1.00 20.00     0.014 C 
HETATM    5  C3  UNL     1     -32.568   6.460   0.955  1.00 20.00     0.014 C 
HETATM    6  C4  UNL     1     -33.145   8.857   1.356  1.00 20.00     0.014 C 
ENDBRANCH   2   3
ENDBRANCH   1   2
BRANCH   1   7
HETATM    7  C7  UNL     1     -34.717   5.458   4.463  1.00 20.00     0.114 C 
HETATM    8  C1  UNL     1     -33.791   4.919   5.545  1.00 20.00     0.039 C 
BRANCH   7   9
HETATM    9  O9  UNL     1     -35.708   4.476   4.175  1.00 20.00    -0.396 OA
HETATM   10  H27 UNL     1     -36.189   4.317   5.002  1.00 20.00     0.210 HD
ENDBRANCH   7   9
ENDBRANCH   1   7
TORSDOF 4
