REMARK  0 active torsions:
REMARK  status: ('A' for Active; 'I' for Inactive)
ROOT
HETATM    1  C1  UNL     1     -32.693   6.295   2.263  1.00 20.00     0.166 A 
HETATM    2  C2  UNL     1     -33.439   6.517   4.273  1.00 20.00     0.048 A 
HETATM    3  C3  UNL     1     -34.121   5.389   3.915  1.00 20.00     0.008 A 
HETATM    4  C4  UNL     1     -33.749   6.941   5.652  1.00 20.00     0.061 C 
HETATM    5  C5  UNL     1     -35.002   4.857   4.972  1.00 20.00     0.048 C 
HETATM    6  C6  UNL     1     -34.506   5.686   6.206  1.00 20.00     0.011 C 
HETATM    7  N7  UNL     1     -32.609   7.060   3.340  1.00 20.00    -0.257 NA
HETATM    8  S8  UNL     1     -33.762   4.924   2.351  1.00 20.00    -0.085 SA
ENDROOT
TORSDOF 0
