REMARK  1 active torsions:
REMARK  status: ('A' for Active; 'I' for Inactive)
REMARK    1  A    between atoms: C7_7  and  C10_10 
ROOT
HETATM    1  C1  UNL     1     -33.920   4.723   3.421  1.00 20.00    -0.004 C 
HETATM    2  C2  UNL     1     -34.366   5.722   4.377  1.00 20.00    -0.004 C 
HETATM    3  C3  UNL     1     -33.090   4.869   2.373  1.00 20.00    -0.017 C 
HETATM    4  C4  UNL     1     -34.054   7.030   4.439  1.00 20.00    -0.017 C 
HETATM    5  C5  UNL     1     -31.321   6.560   2.800  1.00 20.00    -0.021 C 
HETATM    6  C6  UNL     1     -31.733   7.483   3.680  1.00 20.00    -0.021 C 
HETATM    7  C8  UNL     1     -32.450   6.147   1.889  1.00 20.00     0.042 C 
HETATM    8  C9  UNL     1     -33.191   7.807   3.475  1.00 20.00     0.042 C 
HETATM    9  C10 UNL     1     -33.399   7.351   2.020  1.00 20.00     0.077 C 
ENDROOT
BRANCH   9  10
HETATM   10  C7  UNL     1     -33.034   8.433   1.038  1.00 20.00     0.129 C 
HETATM   11  C11 UNL     1     -33.732   8.401  -0.295  1.00 20.00     0.091 C 
HETATM   12  O12 UNL     1     -32.208   9.302   1.312  1.00 20.00    -0.298 OA
ENDBRANCH   9  10
TORSDOF 1
