REMARK  0 active torsions:
REMARK  status: ('A' for Active; 'I' for Inactive)
ROOT
HETATM    1  C1  UNL     1     -34.374   4.459   5.064  1.00 20.00     0.048 C 
HETATM    2  C2  UNL     1     -34.785   5.298   6.255  1.00 20.00     0.169 C 
HETATM    3  C3  UNL     1     -33.608   6.663   4.775  1.00 20.00     0.187 C 
HETATM    4  C4  UNL     1     -34.221   5.516   3.997  1.00 20.00     0.108 C 
HETATM    5  O5  UNL     1     -34.124   6.564   6.114  1.00 20.00    -0.390 OA
HETATM    6 CL6  UNL     1     -33.215   4.986   2.646  1.00 20.00    -0.123 Cl
ENDROOT
TORSDOF 0
