REMARK  5 active torsions:
REMARK  status: ('A' for Active; 'I' for Inactive)
REMARK    1  A    between atoms: C1_1  and  C9_9 
REMARK    2  A    between atoms: C1_1  and  O11_11 
REMARK    3  A    between atoms: C6_6  and  C7_7 
REMARK    4  A    between atoms: C7_7  and  C9_9 
REMARK    5  A    between atoms: C8_8  and  O11_11 
ROOT
HETATM    1  C4  UNL     1     -31.700   5.861   2.729  1.00 20.00     0.025 C 
HETATM    2  C5  UNL     1     -33.576   5.165   1.242  1.00 20.00     0.025 C 
HETATM    3  C9  UNL     1     -33.177   6.122   2.380  1.00 20.00     0.041 C 
ENDROOT
BRANCH   3   4
HETATM    4  C1  UNL     1     -34.023   5.820   3.624  1.00 20.00     0.266 C 
HETATM    5  O10 UNL     1     -34.909   4.975   3.670  1.00 20.00    -0.264 OA
BRANCH   4   6
HETATM    6  O11 UNL     1     -33.645   6.618   4.667  1.00 20.00    -0.321 OA
BRANCH   6   7
HETATM    7  C8  UNL     1     -34.361   6.421   5.890  1.00 20.00     0.174 C 
HETATM    8  C3  UNL     1     -34.170   4.991   6.349  1.00 20.00     0.034 C 
ENDBRANCH   6   7
ENDBRANCH   4   6
ENDBRANCH   3   4
BRANCH   3   9
HETATM    9  C7  UNL     1     -33.345   7.600   1.942  1.00 20.00     0.018 C 
BRANCH   9  10
HETATM   10  C6  UNL     1     -32.575   7.987   0.673  1.00 20.00    -0.003 C 
HETATM   11  C2  UNL     1     -32.843   9.435   0.287  1.00 20.00     0.005 C 
ENDBRANCH   9  10
ENDBRANCH   3   9
TORSDOF 5
