REMARK  2 active torsions:
REMARK  status: ('A' for Active; 'I' for Inactive)
REMARK    1  A    between atoms: C2_2  and  C5_5 
REMARK    2  A    between atoms: C5_5  and  C6_6 
ROOT
HETATM    1  C1  UNL     1     -33.003   4.378   2.873  1.00 20.00     0.206 A 
HETATM    2  C2  UNL     1     -33.882   5.501   3.371  1.00 20.00     0.079 A 
HETATM    3  C3  UNL     1     -33.371   6.905   3.338  1.00 20.00     0.048 C 
HETATM    4  O7  UNL     1     -34.063   4.921   2.071  1.00 20.00    -0.375 OA
ENDROOT
BRANCH   2   5
HETATM    5  C5  UNL     1     -35.011   5.195   4.341  1.00 20.00     0.039 C 
BRANCH   5   6
HETATM    6  C6  UNL     1     -34.512   5.149   5.784  1.00 20.00    -0.002 C 
HETATM    7  C4  UNL     1     -33.874   6.467   6.194  1.00 20.00     0.005 C 
ENDBRANCH   5   6
ENDBRANCH   2   5
TORSDOF 2
