REMARK  3 active torsions:
REMARK  status: ('A' for Active; 'I' for Inactive)
REMARK    1  A    between atoms: C4_4  and  C6_6 
REMARK    2  A    between atoms: C6_6  and  C8_8 
REMARK    3  A    between atoms: C7_7  and  C8_8 
ROOT
HETATM    1  C1  UNL     1     -34.479   6.184   5.649  1.00 20.00     0.011 C 
HETATM    2  C2  UNL     1     -33.231   6.908   5.169  1.00 20.00     0.016 C 
HETATM    3  C3  UNL     1     -34.607   4.935   4.794  1.00 20.00     0.074 C 
HETATM    4  C4  UNL     1     -33.361   7.031   3.653  1.00 20.00     0.047 C 
HETATM    5  S9  UNL     1     -34.104   5.451   3.129  1.00 20.00    -0.164 SA
ENDROOT
BRANCH   4   6
HETATM    6  C6  UNL     1     -32.028   7.276   2.967  1.00 20.00     0.015 C 
BRANCH   6   7
HETATM    7  C8  UNL     1     -32.187   7.356   1.449  1.00 20.00     0.001 C 
BRANCH   7   8
HETATM    8  C7  UNL     1     -33.098   8.514   1.045  1.00 20.00    -0.005 C 
HETATM    9  C5  UNL     1     -33.232   8.618  -0.466  1.00 20.00     0.005 C 
ENDBRANCH   7   8
ENDBRANCH   6   7
ENDBRANCH   4   6
TORSDOF 3
