REMARK  0 active torsions:
REMARK  status: ('A' for Active; 'I' for Inactive)
ROOT
HETATM    1  C1  UNL     1     -32.794   8.271   1.295  1.00 20.00     0.094 C 
HETATM    2  C2  UNL     1     -34.135   4.635   3.680  1.00 20.00     0.003 C 
HETATM    3  C3  UNL     1     -34.743   5.551   4.737  1.00 20.00     0.003 C 
HETATM    4  C4  UNL     1     -33.678   5.602   2.585  1.00 20.00     0.042 C 
HETATM    5  C5  UNL     1     -33.799   6.756   4.763  1.00 20.00     0.042 C 
HETATM    6  C6  UNL     1     -32.864   8.139   2.716  1.00 20.00     0.263 A 
HETATM    7  C7  UNL     1     -33.296   6.835   3.351  1.00 20.00     0.101 A 
HETATM    8  N8  UNL     1     -32.738   8.379   0.141  1.00 20.00    -0.194 NA
HETATM    9  O9  UNL     1     -31.913   7.201   3.239  1.00 20.00    -0.354 OA
ENDROOT
TORSDOF 0
