REMARK  1 active torsions:
REMARK  status: ('A' for Active; 'I' for Inactive)
REMARK    1  A    between atoms: C5_5  and  O12_12 
ROOT
HETATM    1  C1  UNL     1     -33.551   5.013   2.074  1.00 20.00     0.006 C 
HETATM    2  C2  UNL     1     -33.777   4.297   3.411  1.00 20.00     0.012 C 
HETATM    3  C3  UNL     1     -35.369   6.055   3.155  1.00 20.00     0.017 C 
HETATM    4  C4  UNL     1     -34.125   6.418   2.331  1.00 20.00    -0.003 C 
HETATM    5  C5  UNL     1     -33.566   6.457   4.690  1.00 20.00     0.137 C 
HETATM    6  C6  UNL     1     -34.557   5.343   4.243  1.00 20.00    -0.017 C 
HETATM    7  C7  UNL     1     -33.265   7.222   3.360  1.00 20.00    -0.017 C 
HETATM    8  C8  UNL     1     -35.387   4.730   5.355  1.00 20.00     0.018 C 
HETATM    9  C9  UNL     1     -31.761   7.206   3.046  1.00 20.00     0.018 C 
HETATM   10  C10 UNL     1     -33.716   8.698   3.374  1.00 20.00     0.018 C 
ENDROOT
BRANCH   5  11
HETATM   11  O12 UNL     1     -34.164   7.291   5.672  1.00 20.00    -0.389 OA
HETATM   12  C11 UNL     1     -33.186   8.003   6.418  1.00 20.00     0.202 C 
ENDBRANCH   5  11
TORSDOF 1
