REMARK  3 active torsions:
REMARK  status: ('A' for Active; 'I' for Inactive)
REMARK    1  A    between atoms: C2_2  and  C6_6 
REMARK    2  A    between atoms: C2_2  and  O9_9 
REMARK    3  A    between atoms: C5_5  and  C6_6 
ROOT
HETATM    1  C1  UNL     1     -32.277   7.253   2.253  1.00 20.00     0.074 C 
HETATM    2  C6  UNL     1     -33.335   6.374   2.786  1.00 20.00     0.192 C 
HETATM    3  N7  UNL     1     -31.448   7.948   1.832  1.00 20.00    -0.196 NA
ENDROOT
BRANCH   2   4
HETATM    4  C2  UNL     1     -33.495   6.549   4.287  1.00 20.00     0.276 C 
HETATM    5  O8  UNL     1     -32.798   7.270   4.990  1.00 20.00    -0.264 OA
BRANCH   4   6
HETATM    6  O9  UNL     1     -34.528   5.770   4.729  1.00 20.00    -0.325 OA
HETATM    7  C4  UNL     1     -34.786   5.826   6.136  1.00 20.00     0.213 C 
ENDBRANCH   4   6
ENDBRANCH   2   4
BRANCH   2   8
HETATM    8  C5  UNL     1     -33.085   4.905   2.411  1.00 20.00     0.025 C 
HETATM    9  C3  UNL     1     -34.171   3.940   2.879  1.00 20.00     0.007 C 
ENDBRANCH   2   8
TORSDOF 3
