REMARK  0 active torsions:
REMARK  status: ('A' for Active; 'I' for Inactive)
ROOT
HETATM    1  C1  UNL     1     -33.659   7.523   4.791  1.00 20.00     0.033 A 
HETATM    2  C2  UNL     1     -34.209   7.325   6.047  1.00 20.00     0.117 A 
HETATM    3  C3  UNL     1     -34.853   5.141   5.597  1.00 20.00     0.136 A 
HETATM    4  C4  UNL     1     -33.496   5.098   1.983  1.00 20.00     0.070 A 
HETATM    5  C5  UNL     1     -33.716   6.445   3.886  1.00 20.00     0.002 A 
HETATM    6  C6  UNL     1     -34.320   5.259   4.312  1.00 20.00     0.034 A 
HETATM    7  C7  UNL     1     -33.245   6.332   2.535  1.00 20.00     0.029 A 
HETATM    8  N8  UNL     1     -34.792   6.181   6.456  1.00 20.00    -0.272 NA
HETATM    9  S9  UNL     1     -34.297   4.061   3.074  1.00 20.00    -0.098 SA
HETATM   10 BR10 UNL     1     -32.372   7.731   1.613  1.00 20.00    -0.050 Br
ENDROOT
TORSDOF 0
