REMARK  1 active torsions:
REMARK  status: ('A' for Active; 'I' for Inactive)
REMARK    1  A    between atoms: C3_3  and  C6_6 
ROOT
HETATM    1  C1  UNL     1     -32.542   5.335   2.435  1.00 20.00     0.282 C 
HETATM    2  C2  UNL     1     -32.364   6.689   3.103  1.00 20.00     0.106 C 
HETATM    3  C3  UNL     1     -34.439   5.241   3.867  1.00 20.00     0.201 C 
HETATM    4  C4  UNL     1     -35.901   5.685   3.806  1.00 20.00     0.061 C 
HETATM    5  N7  UNL     1     -33.964   4.995   2.498  1.00 20.00     0.103 N 
HETATM    6  S8  UNL     1     -33.420   6.592   4.565  1.00 20.00    -0.127 SA
HETATM    7  H21 UNL     1     -34.461   5.615   1.858  1.00 20.00     0.318 HD
ENDROOT
BRANCH   3   8
HETATM    8  C6  UNL     1     -34.293   3.992   4.742  1.00 20.00     0.048 C 
HETATM    9  C5  UNL     1     -34.753   4.245   6.139  1.00 20.00     0.009 C 
ENDBRANCH   3   8
TORSDOF 1
