REMARK  2 active torsions:
REMARK  status: ('A' for Active; 'I' for Inactive)
REMARK    1  A    between atoms: C1_1  and  C3_3 
REMARK    2  A    between atoms: C2_2  and  C9_9 
ROOT
HETATM    1  C1  UNL     1     -32.916   7.170   2.881  1.00 20.00    -0.071 C 
HETATM    2  C2  UNL     1     -33.557   6.473   3.621  1.00 20.00    -0.095 C 
ENDROOT
BRANCH   1   3
HETATM    3  C3  UNL     1     -32.135   8.017   1.982  1.00 20.00     0.229 A 
HETATM    4  C4  UNL     1     -32.814   9.009   1.098  1.00 20.00     0.160 A 
HETATM    5  C5  UNL     1     -34.284   9.240   1.066  1.00 20.00     0.043 C 
HETATM    6  O10 UNL     1     -32.403   7.728   0.613  1.00 20.00    -0.363 OA
ENDBRANCH   1   3
BRANCH   2   7
HETATM    7  C9  UNL     1     -34.348   5.615   4.530  1.00 20.00     0.013 C 
HETATM    8  C6  UNL     1     -34.220   4.150   4.089  1.00 20.00     0.028 C 
HETATM    9  C7  UNL     1     -35.822   6.039   4.479  1.00 20.00     0.028 C 
HETATM   10  C8  UNL     1     -33.819   5.768   5.964  1.00 20.00     0.028 C 
ENDBRANCH   2   7
TORSDOF 2
