REMARK  0 active torsions:
REMARK  status: ('A' for Active; 'I' for Inactive)
ROOT
HETATM    1  C1  UNL     1     -34.546   5.791   5.232  1.00 20.00     0.003 C 
HETATM    2  C2  UNL     1     -34.755   4.689   4.195  1.00 20.00     0.003 C 
HETATM    3  C3  UNL     1     -34.147   7.007   4.393  1.00 20.00     0.040 C 
HETATM    4  C4  UNL     1     -33.625   4.917   3.188  1.00 20.00     0.040 C 
HETATM    5  C5  UNL     1     -32.944   7.203   2.053  1.00 20.00     0.207 A 
HETATM    6  C6  UNL     1     -33.416   6.400   3.236  1.00 20.00     0.082 A 
HETATM    7  O7  UNL     1     -32.049   6.814   3.103  1.00 20.00    -0.375 OA
ENDROOT
TORSDOF 0
