REMARK  0 active torsions:
REMARK  status: ('A' for Active; 'I' for Inactive)
ROOT
HETATM    1  C1  UNL     1     -33.509   6.699   4.427  1.00 20.00     0.116 C 
HETATM    2  C2  UNL     1     -33.700   5.041   2.398  1.00 20.00     0.344 C 
HETATM    3  C3  UNL     1     -34.396   5.460   4.639  1.00 20.00     0.159 C 
HETATM    4  C4  UNL     1     -34.236   4.943   6.077  1.00 20.00     0.049 C 
HETATM    5  C5  UNL     1     -35.885   5.765   4.396  1.00 20.00     0.049 C 
HETATM    6  N6  UNL     1     -33.917   4.416   3.704  1.00 20.00     0.102 N 
HETATM    7  S7  UNL     1     -33.161   6.746   2.652  1.00 20.00    -0.137 SA
HETATM    8  H18 UNL     1     -34.649   3.719   3.600  1.00 20.00     0.317 HD
ENDROOT
TORSDOF 0
