REMARK  0 active torsions:
REMARK  status: ('A' for Active; 'I' for Inactive)
ROOT
HETATM    1  C1  UNL     1     -33.500   4.802   1.824  1.00 20.00     0.014 A 
HETATM    2  C2  UNL     1     -33.076   5.893   1.064  1.00 20.00     0.024 A 
HETATM    3  C3  UNL     1     -34.249   3.886   3.972  1.00 20.00     0.031 A 
HETATM    4  C4  UNL     1     -33.280   7.327   2.995  1.00 20.00     0.039 A 
HETATM    5  C5  UNL     1     -34.546   4.122   5.305  1.00 20.00     0.119 A 
HETATM    6  C6  UNL     1     -33.820   4.959   3.182  1.00 20.00    -0.021 A 
HETATM    7  C7  UNL     1     -33.708   6.236   3.770  1.00 20.00     0.016 A 
HETATM    8  C8  UNL     1     -32.966   7.153   1.648  1.00 20.00     0.035 A 
HETATM    9  C9  UNL     1     -34.035   6.354   5.123  1.00 20.00     0.136 A 
HETATM   10  N10 UNL     1     -34.450   5.330   5.902  1.00 20.00    -0.248 NA
HETATM   11 CL11 UNL     1     -32.442   8.494   0.704  1.00 20.00    -0.084 Cl
HETATM   12 CL12 UNL     1     -33.956   7.836   6.005  1.00 20.00    -0.061 Cl
ENDROOT
TORSDOF 0
