REMARK  2 active torsions:
REMARK  status: ('A' for Active; 'I' for Inactive)
REMARK    1  A    between atoms: C3_3  and  C8_8 
REMARK       I    between atoms: C3_3  and  N10_10 
REMARK    2  A    between atoms: C9_9  and  N10_10 
ROOT
HETATM    1  C1  UNL     1     -31.915   7.835   0.000  1.00 20.00     0.015 C 
HETATM    2  C2  UNL     1     -32.204   7.826   1.166  1.00 20.00    -0.086 C 
HETATM    3  C6  UNL     1     -31.300   8.042   3.442  1.00 20.00     0.052 C 
HETATM    4  C7  UNL     1     -33.585   8.916   2.888  1.00 20.00     0.052 C 
HETATM    5  C9  UNL     1     -32.560   7.815   2.599  1.00 20.00     0.088 C 
ENDROOT
BRANCH   5   6
HETATM    6  N10 UNL     1     -33.135   6.532   2.931  1.00 20.00    -0.341 N 
HETATM    7  C3  UNL     1     -33.570   6.213   4.209  1.00 20.00     0.222 C 
HETATM    8  O11 UNL     1     -33.517   6.969   5.177  1.00 20.00    -0.273 OA
HETATM    9  H26 UNL     1     -33.224   5.834   2.199  1.00 20.00     0.164 HD
BRANCH   7  10
HETATM   10  C8  UNL     1     -34.133   4.796   4.298  1.00 20.00     0.070 C 
HETATM   11  C4  UNL     1     -33.880   4.214   5.687  1.00 20.00     0.019 C 
HETATM   12  C5  UNL     1     -35.626   4.776   3.975  1.00 20.00     0.019 C 
ENDBRANCH   7  10
ENDBRANCH   5   6
TORSDOF 2
