REMARK  0 active torsions:
REMARK  status: ('A' for Active; 'I' for Inactive)
ROOT
HETATM    1  C1  UNL     1     -33.494   6.483   4.465  1.00 20.00     0.139 C 
HETATM    2  C2  UNL     1     -32.705   6.209   3.167  1.00 20.00     0.057 C 
HETATM    3  C3  UNL     1     -33.944   5.391   2.676  1.00 20.00     0.007 C 
HETATM    4  C4  UNL     1     -34.543   5.376   4.137  1.00 20.00     0.018 C 
HETATM    5  C5  UNL     1     -32.346   7.430   2.345  1.00 20.00     0.018 C 
HETATM    6  C6  UNL     1     -33.627   4.071   1.991  1.00 20.00     0.012 C 
HETATM    7  C7  UNL     1     -34.347   4.113   4.972  1.00 20.00     0.023 C 
HETATM    8  C8  UNL     1     -35.989   5.866   4.196  1.00 20.00     0.023 C 
HETATM    9  O9  UNL     1     -33.344   7.255   5.389  1.00 20.00    -0.297 OA
ENDROOT
TORSDOF 0
