REMARK  1 active torsions:
REMARK  status: ('A' for Active; 'I' for Inactive)
REMARK    1  A    between atoms: C6_6  and  N7_7 
ROOT
HETATM    1  C1  UNL     1     -34.313   4.929   5.565  1.00 20.00     0.000 C 
HETATM    2  C2  UNL     1     -34.429   4.621   4.076  1.00 20.00     0.003 C 
HETATM    3  C3  UNL     1     -34.325   6.430   5.839  1.00 20.00     0.003 C 
HETATM    4  C4  UNL     1     -33.353   5.345   3.264  1.00 20.00     0.046 C 
HETATM    5  C5  UNL     1     -33.249   7.159   5.032  1.00 20.00     0.046 C 
HETATM    6  C6  UNL     1     -33.325   6.858   3.528  1.00 20.00     0.136 C 
HETATM    7 CL9  UNL     1     -34.774   7.639   2.812  1.00 20.00    -0.098 Cl
ENDROOT
BRANCH   6   8
HETATM    8  N7  UNL     1     -32.128   7.449   2.851  1.00 20.00    -0.037 NA
HETATM    9  O8  UNL     1     -32.160   7.261   1.635  1.00 20.00    -0.099 OA
ENDBRANCH   6   8
TORSDOF 1
