REMARK  2 active torsions:
REMARK  status: ('A' for Active; 'I' for Inactive)
REMARK    1  A    between atoms: C1_1  and  C6_6 
REMARK    2  A    between atoms: C1_1  and  O9_9 
ROOT
HETATM    1  C2  UNL     1     -35.515   5.533   4.759  1.00 20.00     0.024 C 
HETATM    2  C3  UNL     1     -33.727   4.514   5.270  1.00 20.00     0.024 C 
HETATM    3  C4  UNL     1     -33.901   6.596   5.633  1.00 20.00     0.024 C 
HETATM    4  C5  UNL     1     -34.742   5.362   6.113  1.00 20.00    -0.011 C 
HETATM    5  C6  UNL     1     -34.026   5.730   4.341  1.00 20.00     0.049 C 
ENDROOT
BRANCH   5   6
HETATM    6  C1  UNL     1     -33.481   6.009   2.988  1.00 20.00     0.267 C 
HETATM    7  O8  UNL     1     -33.627   5.269   2.025  1.00 20.00    -0.264 OA
BRANCH   6   8
HETATM    8  O9  UNL     1     -32.810   7.196   3.003  1.00 20.00    -0.326 OA
HETATM    9  C7  UNL     1     -32.229   7.589   1.755  1.00 20.00     0.213 C 
ENDBRANCH   6   8
ENDBRANCH   5   6
TORSDOF 2
