REMARK  0 active torsions:
REMARK  status: ('A' for Active; 'I' for Inactive)
ROOT
HETATM    1  C1  UNL     1     -34.911   5.996   5.434  1.00 20.00     0.045 C 
HETATM    2  C2  UNL     1     -35.440   5.410   4.342  1.00 20.00     0.011 C 
HETATM    3  C3  UNL     1     -33.605   6.701   5.391  1.00 20.00     0.028 C 
HETATM    4  C4  UNL     1     -34.686   5.427   3.016  1.00 20.00     0.059 C 
HETATM    5  C5  UNL     1     -32.884   6.831   4.068  1.00 20.00     0.067 C 
HETATM    6  C6  UNL     1     -33.157   5.637   3.144  1.00 20.00    -0.038 C 
HETATM    7  C7  UNL     1     -32.475   4.364   3.689  1.00 20.00     0.015 C 
HETATM    8  C8  UNL     1     -32.571   5.932   1.751  1.00 20.00     0.015 C 
HETATM    9  N9  UNL     1     -33.074   7.243   6.439  1.00 20.00    -0.305 NA
HETATM   10  S10 UNL     1     -36.987   4.588   4.277  1.00 20.00    -0.085 SA
HETATM   11  H22 UNL     1     -32.181   7.668   6.177  1.00 20.00     0.186 HD
ENDROOT
TORSDOF 0
