REMARK  4 active torsions:
REMARK  status: ('A' for Active; 'I' for Inactive)
REMARK    1  A    between atoms: C1_1  and  C6_6 
REMARK    2  A    between atoms: C1_1  and  C9_9 
REMARK    3  A    between atoms: C7_7  and  C8_8 
REMARK    4  A    between atoms: C8_8  and  N10_10 
ROOT
HETATM    1  C1  UNL     1     -33.586   6.143   3.655  1.00 20.00     0.009 C 
HETATM    2  N10 UNL     1     -32.819   7.148   3.396  1.00 20.00    -0.298 NA
ENDROOT
BRANCH   1   3
HETATM    3  C6  UNL     1     -33.970   5.058   2.663  1.00 20.00     0.050 C 
HETATM    4  C2  UNL     1     -32.957   3.927   2.692  1.00 20.00     0.011 C 
ENDBRANCH   1   3
BRANCH   1   5
HETATM    5  C9  UNL     1     -34.151   6.014   5.073  1.00 20.00     0.025 C 
HETATM    6  C4  UNL     1     -33.711   7.204   5.918  1.00 20.00     0.016 C 
HETATM    7  C5  UNL     1     -33.730   4.692   5.706  1.00 20.00     0.016 C 
ENDBRANCH   1   5
BRANCH   2   8
HETATM    8  C8  UNL     1     -32.251   7.298   2.068  1.00 20.00     0.148 C 
BRANCH   8   9
HETATM    9  C7  UNL     1     -33.189   8.121   1.194  1.00 20.00     0.017 C 
HETATM   10  C3  UNL     1     -32.659   8.306  -0.221  1.00 20.00     0.007 C 
ENDBRANCH   8   9
ENDBRANCH   2   8
TORSDOF 4
