REMARK  2 active torsions:
REMARK  status: ('A' for Active; 'I' for Inactive)
REMARK    1  A    between atoms: C1_1  and  C7_7 
REMARK    2  A    between atoms: C6_6  and  N8_8 
ROOT
HETATM    1  C1  UNL     1     -33.669   7.513   1.870  1.00 20.00     0.108 C 
HETATM    2  N8  UNL     1     -33.152   6.610   2.631  1.00 20.00    -0.299 NA
ENDROOT
BRANCH   1   3
HETATM    3  C7  UNL     1     -32.821   8.539   1.142  1.00 20.00     0.063 C 
HETATM    4  C4  UNL     1     -31.351   8.293   1.474  1.00 20.00     0.038 C 
HETATM    5  C5  UNL     1     -33.216   9.981   1.452  1.00 20.00     0.038 C 
HETATM    6 CL9  UNL     1     -33.089   8.223  -0.602  1.00 20.00    -0.114 Cl
ENDBRANCH   1   3
BRANCH   2   7
HETATM    7  C6  UNL     1     -34.151   5.732   3.234  1.00 20.00     0.099 C 
HETATM    8  C2  UNL     1     -33.541   4.352   3.431  1.00 20.00     0.034 C 
HETATM    9  C3  UNL     1     -34.611   6.338   4.551  1.00 20.00     0.034 C 
ENDBRANCH   2   7
TORSDOF 2
