REMARK  2 active torsions:
REMARK  status: ('A' for Active; 'I' for Inactive)
REMARK    1  A    between atoms: C2_2  and  C4_4 
REMARK    2  A    between atoms: C4_4  and  S5_5 
ROOT
HETATM    1  C1  UNL     1     -32.603   5.001   3.200  1.00 20.00     0.051 A 
HETATM    2  C2  UNL     1     -33.081   6.095   2.287  1.00 20.00     0.036 A 
HETATM    3  C3  UNL     1     -33.714   5.917   3.649  1.00 20.00     0.118 A 
HETATM    4 CL6  UNL     1     -35.348   5.257   3.711  1.00 20.00    -0.101 Cl
HETATM    5 CL7  UNL     1     -33.375   7.053   4.948  1.00 20.00    -0.101 Cl
ENDROOT
BRANCH   2   6
HETATM    6  C4  UNL     1     -32.181   7.237   1.959  1.00 20.00     0.078 C 
BRANCH   6   7
HETATM    7  S5  UNL     1     -33.126   8.678   1.365  1.00 20.00    -0.182 SA
HETATM    8  H13 UNL     1     -32.062   9.469   1.175  1.00 20.00     0.101 HD
ENDBRANCH   6   7
ENDBRANCH   2   6
TORSDOF 2
