REMARK  1 active torsions:
REMARK  status: ('A' for Active; 'I' for Inactive)
REMARK    1  A    between atoms: C4_4  and  C5_5 
ROOT
HETATM    1  C1  UNL     1     -33.627   5.902   3.664  1.00 20.00     0.127 C 
HETATM    2  C2  UNL     1     -33.103   5.678   2.236  1.00 20.00     0.084 C 
HETATM    3  C3  UNL     1     -32.591   7.006   3.935  1.00 20.00     0.084 C 
HETATM    4  C4  UNL     1     -32.267   6.977   2.415  1.00 20.00     0.013 C 
HETATM    5  O6  UNL     1     -34.520   5.407   4.319  1.00 20.00    -0.298 OA
ENDROOT
BRANCH   4   6
HETATM    6  C5  UNL     1     -32.770   8.178   1.628  1.00 20.00     0.120 C 
HETATM    7 CL7  UNL     1     -32.237   8.080  -0.062  1.00 20.00    -0.130 Cl
ENDBRANCH   4   6
TORSDOF 1
