REMARK  1 active torsions:
REMARK  status: ('A' for Active; 'I' for Inactive)
REMARK    1  A    between atoms: C2_2  and  C5_5 
ROOT
HETATM    1  C1  UNL     1     -33.258   5.555   1.280  1.00 20.00     0.065 A 
HETATM    2  C2  UNL     1     -33.244   6.632   2.141  1.00 20.00     0.015 A 
HETATM    3  C3  UNL     1     -33.703   6.283   3.447  1.00 20.00    -0.031 A 
HETATM    4  C4  UNL     1     -34.053   4.948   3.516  1.00 20.00    -0.010 A 
HETATM    5  C6  UNL     1     -33.837   7.204   4.620  1.00 20.00     0.040 C 
HETATM    6  C7  UNL     1     -34.549   4.252   4.746  1.00 20.00     0.046 C 
HETATM    7  C8  UNL     1     -33.990   6.429   5.938  1.00 20.00     0.005 C 
HETATM    8  C9  UNL     1     -34.994   5.275   5.803  1.00 20.00     0.005 C 
HETATM    9  S11 UNL     1     -33.823   4.129   2.042  1.00 20.00    -0.105 SA
ENDROOT
BRANCH   2  10
HETATM   10  C5  UNL     1     -32.809   7.938   1.719  1.00 20.00     0.271 C 
HETATM   11  O10 UNL     1     -32.419   8.195   0.568  1.00 20.00    -0.301 OA
ENDBRANCH   2  10
TORSDOF 1
