REMARK  3 active torsions:
REMARK  status: ('A' for Active; 'I' for Inactive)
REMARK    1  A    between atoms: C1_1  and  C3_3 
REMARK       I    between atoms: C1_1  and  N10_10 
REMARK    2  A    between atoms: C8_8  and  C9_9 
REMARK    3  A    between atoms: C8_8  and  N10_10 
ROOT
HETATM    1  C1  UNL     1     -33.258   6.972   3.517  1.00 20.00     0.222 C 
HETATM    2  N10 UNL     1     -33.327   7.005   2.156  1.00 20.00    -0.360 N 
HETATM    3  O11 UNL     1     -32.297   7.250   4.225  1.00 20.00    -0.273 OA
HETATM    4  H28 UNL     1     -34.184   6.751   1.707  1.00 20.00     0.162 HD
ENDROOT
BRANCH   1   5
HETATM    5  C3  UNL     1     -34.539   6.541   4.151  1.00 20.00     0.082 A 
HETATM    6  C2  UNL     1     -34.493   5.949   5.523  1.00 20.00     0.019 A 
HETATM    7  C4  UNL     1     -34.831   5.085   4.341  1.00 20.00    -0.005 A 
HETATM    8  C5  UNL     1     -33.895   4.007   3.913  1.00 20.00     0.011 C 
ENDBRANCH   1   5
BRANCH   2   9
HETATM    9  C8  UNL     1     -32.171   7.407   1.323  1.00 20.00     0.126 C 
BRANCH   9  10
HETATM   10  C9  UNL     1     -32.489   8.635   0.462  1.00 20.00    -0.005 C 
HETATM   11  C6  UNL     1     -33.657   8.389  -0.494  1.00 20.00     0.011 C 
HETATM   12  C7  UNL     1     -32.743   9.882   1.312  1.00 20.00     0.011 C 
ENDBRANCH   9  10
ENDBRANCH   2   9
TORSDOF 3
