REMARK  3 active torsions:
REMARK  status: ('A' for Active; 'I' for Inactive)
REMARK    1  A    between atoms: C1_1  and  C3_3 
REMARK       I    between atoms: C1_1  and  N10_10 
REMARK    2  A    between atoms: C8_8  and  C9_9 
REMARK    3  A    between atoms: C8_8  and  N10_10 
ROOT
HETATM    1  C1  UNL     1     -33.201   6.117   2.818  1.00 20.00     0.222 C 
HETATM    2  N10 UNL     1     -32.469   7.167   2.349  1.00 20.00    -0.360 N 
HETATM    3  O11 UNL     1     -33.738   5.228   2.167  1.00 20.00    -0.273 OA
HETATM    4  H28 UNL     1     -32.087   7.822   3.001  1.00 20.00     0.162 HD
ENDROOT
BRANCH   1   5
HETATM    5  C3  UNL     1     -33.319   6.113   4.306  1.00 20.00     0.082 A 
HETATM    6  C2  UNL     1     -33.845   7.339   4.981  1.00 20.00     0.019 A 
HETATM    7  C4  UNL     1     -34.688   6.098   4.909  1.00 20.00    -0.005 A 
HETATM    8  C5  UNL     1     -34.941   5.292   6.136  1.00 20.00     0.011 C 
ENDBRANCH   1   5
BRANCH   2   9
HETATM    9  C8  UNL     1     -32.222   7.365   0.903  1.00 20.00     0.126 C 
BRANCH   9  10
HETATM   10  C9  UNL     1     -33.312   8.226   0.253  1.00 20.00    -0.005 C 
HETATM   11  C6  UNL     1     -33.405   9.618   0.880  1.00 20.00     0.011 C 
HETATM   12  C7  UNL     1     -33.135   8.328  -1.263  1.00 20.00     0.011 C 
ENDBRANCH   9  10
ENDBRANCH   2   9
TORSDOF 3
