REMARK  1 active torsions:
REMARK  status: ('A' for Active; 'I' for Inactive)
REMARK    1  A    between atoms: C1_1  and  C4_4 
ROOT
HETATM    1  C2  UNL     1     -32.228   6.964   3.692  1.00 20.00     0.023 C 
HETATM    2  C3  UNL     1     -32.424   6.701   2.210  1.00 20.00     0.075 C 
HETATM    3  C4  UNL     1     -33.603   6.829   4.338  1.00 20.00     0.066 C 
HETATM    4  C5  UNL     1     -34.200   5.487   3.869  1.00 20.00     0.010 C 
HETATM    5  C6  UNL     1     -33.650   4.254   4.599  1.00 20.00     0.027 C 
HETATM    6  C7  UNL     1     -35.729   5.498   3.935  1.00 20.00     0.027 C 
HETATM    7  S9  UNL     1     -33.666   5.383   2.111  1.00 20.00    -0.159 SA
ENDROOT
BRANCH   3   8
HETATM    8  C1  UNL     1     -33.504   6.938   5.830  1.00 20.00     0.237 C 
HETATM    9  O8  UNL     1     -34.390   7.413   6.533  1.00 20.00    -0.306 OA
ENDBRANCH   3   8
TORSDOF 1
