REMARK  0 active torsions:
REMARK  status: ('A' for Active; 'I' for Inactive)
ROOT
HETATM    1  C1  UNL     1     -34.741   5.579   6.497  1.00 20.00     0.137 A 
HETATM    2  C2  UNL     1     -34.024   6.743   6.278  1.00 20.00     0.118 A 
HETATM    3  C3  UNL     1     -34.262   5.556   4.451  1.00 20.00     0.177 A 
HETATM    4  C4  UNL     1     -33.058   7.493   4.044  1.00 20.00     0.112 A 
HETATM    5  C5  UNL     1     -33.069   6.953   2.811  1.00 20.00    -0.002 A 
HETATM    6  C6  UNL     1     -32.444   7.535   1.592  1.00 20.00     0.058 C 
HETATM    7  N7  UNL     1     -34.887   4.835   5.340  1.00 20.00    -0.235 NA
HETATM    8  N8  UNL     1     -33.727   6.703   4.950  1.00 20.00    -0.309 N 
HETATM    9  S9  UNL     1     -33.942   5.399   2.752  1.00 20.00    -0.055 SA
ENDROOT
TORSDOF 0
