REMARK  2 active torsions:
REMARK  status: ('A' for Active; 'I' for Inactive)
REMARK    1  A    between atoms: C5_5  and  C6_6 
REMARK    2  A    between atoms: C7_7  and  N9_9 
ROOT
HETATM    1  C1  UNL     1     -32.452   7.781   1.712  1.00 20.00     0.079 C 
HETATM    2  C7  UNL     1     -31.956   6.866   2.743  1.00 20.00     0.252 C 
HETATM    3  N8  UNL     1     -32.844   8.507   0.896  1.00 20.00    -0.196 NA
ENDROOT
BRANCH   2   4
HETATM    4  N9  UNL     1     -32.929   5.851   3.079  1.00 20.00    -0.341 N 
HETATM    5  C4  UNL     1     -33.196   4.745   2.314  1.00 20.00     0.092 A 
HETATM    6  C2  UNL     1     -34.174   4.016   2.953  1.00 20.00     0.020 A 
HETATM    7  C3  UNL     1     -34.507   4.707   4.144  1.00 20.00     0.034 A 
HETATM    8  C5  UNL     1     -33.723   5.838   4.196  1.00 20.00     0.073 A 
BRANCH   8   9
HETATM    9  C6  UNL     1     -33.708   6.844   5.215  1.00 20.00     0.288 C 
HETATM   10  O10 UNL     1     -34.437   6.822   6.226  1.00 20.00    -0.300 OA
ENDBRANCH   8   9
ENDBRANCH   2   4
TORSDOF 2
