REMARK  4 active torsions:
REMARK  status: ('A' for Active; 'I' for Inactive)
REMARK    1  A    between atoms: C1_1  and  C6_6 
REMARK    2  A    between atoms: C1_1  and  O8_8 
REMARK    3  A    between atoms: C5_5  and  C6_6 
REMARK    4  A    between atoms: C5_5  and  S9_9 
ROOT
HETATM    1  C2  UNL     1     -31.819   7.674   3.945  1.00 20.00     0.021 C 
HETATM    2  C6  UNL     1     -33.261   7.483   3.473  1.00 20.00     0.090 C 
ENDROOT
BRANCH   2   3
HETATM    3  C1  UNL     1     -33.923   6.313   4.188  1.00 20.00     0.263 C 
HETATM    4  O7  UNL     1     -34.448   5.358   3.629  1.00 20.00    -0.265 OA
BRANCH   3   5
HETATM    5  O8  UNL     1     -33.845   6.500   5.539  1.00 20.00    -0.326 OA
HETATM    6  C3  UNL     1     -34.438   5.473   6.340  1.00 20.00     0.213 C 
ENDBRANCH   3   5
ENDBRANCH   2   3
BRANCH   2   7
HETATM    7  C5  UNL     1     -33.377   7.362   1.946  1.00 20.00     0.087 C 
BRANCH   7   8
HETATM    8  S9  UNL     1     -33.175   8.929   1.039  1.00 20.00    -0.173 SA
HETATM    9  C4  UNL     1     -33.451   8.297  -0.630  1.00 20.00     0.089 C 
ENDBRANCH   7   8
ENDBRANCH   2   7
TORSDOF 4
