REMARK  3 active torsions:
REMARK  status: ('A' for Active; 'I' for Inactive)
REMARK    1  A    between atoms: C1_1  and  N8_8 
REMARK    2  A    between atoms: C6_6  and  C7_7 
REMARK    3  A    between atoms: C6_6  and  N8_8 
ROOT
HETATM    1  C2  UNL     1     -33.217   4.756   2.663  1.00 20.00     0.033 C 
HETATM    2  C6  UNL     1     -33.167   6.097   3.397  1.00 20.00     0.087 C 
ENDROOT
BRANCH   2   3
HETATM    3  C7  UNL     1     -33.980   6.149   4.732  1.00 20.00    -0.031 C 
HETATM    4  C3  UNL     1     -33.883   7.524   5.419  1.00 20.00     0.016 C 
HETATM    5  C4  UNL     1     -35.468   5.840   4.467  1.00 20.00     0.016 C 
HETATM    6  C5  UNL     1     -33.449   5.077   5.709  1.00 20.00     0.016 C 
ENDBRANCH   2   3
BRANCH   2   7
HETATM    7  N8  UNL     1     -33.564   7.146   2.481  1.00 20.00    -0.363 N 
HETATM    8  H24 UNL     1     -34.532   7.449   2.484  1.00 20.00     0.162 HD
BRANCH   7   9
HETATM    9  C1  UNL     1     -32.693   7.751   1.606  1.00 20.00     0.348 C 
HETATM   10  O9  UNL     1     -32.931   8.640   0.798  1.00 20.00    -0.284 OA
ENDBRANCH   7   9
ENDBRANCH   2   7
TORSDOF 3
