REMARK  1 active torsions:
REMARK  status: ('A' for Active; 'I' for Inactive)
REMARK    1  A    between atoms: C3_3  and  C7_7 
ROOT
HETATM    1  C1  UNL     1     -33.924   5.802   5.647  1.00 20.00    -0.030 C 
HETATM    2  C2  UNL     1     -34.005   5.107   4.504  1.00 20.00    -0.025 C 
HETATM    3  C4  UNL     1     -33.737   7.286   5.697  1.00 20.00     0.028 C 
HETATM    4  C5  UNL     1     -33.950   7.961   4.340  1.00 20.00     0.021 C 
HETATM    5  C6  UNL     1     -33.889   5.735   3.133  1.00 20.00     0.018 C 
HETATM    6  C7  UNL     1     -33.298   7.180   3.178  1.00 20.00     0.016 C 
HETATM    7  C8  UNL     1     -33.116   4.797   2.197  1.00 20.00     0.015 C 
HETATM    8  C9  UNL     1     -31.765   7.212   3.304  1.00 20.00     0.023 C 
ENDROOT
BRANCH   6   9
HETATM    9  C3  UNL     1     -33.667   7.908   1.907  1.00 20.00     0.241 C 
HETATM   10  O10 UNL     1     -32.841   8.388   1.139  1.00 20.00    -0.306 OA
ENDBRANCH   6   9
TORSDOF 1
