REMARK  3 active torsions:
REMARK  status: ('A' for Active; 'I' for Inactive)
REMARK    1  A    between atoms: C1_1  and  C5_5 
REMARK    2  A    between atoms: C6_6  and  C8_8 
REMARK    3  A    between atoms: C8_8  and  C9_9 
ROOT
HETATM    1  C2  UNL     1     -32.593   7.376   3.395  1.00 20.00     0.028 C 
HETATM    2  C3  UNL     1     -34.501   6.810   2.646  1.00 20.00     0.028 C 
HETATM    3  C4  UNL     1     -32.973   5.349   2.877  1.00 20.00     0.028 C 
HETATM    4  C5  UNL     1     -33.651   6.342   3.853  1.00 20.00     0.038 C 
HETATM    5  C6  UNL     1     -33.043   6.692   2.039  1.00 20.00    -0.037 C 
ENDROOT
BRANCH   4   6
HETATM    6  C1  UNL     1     -34.117   6.078   5.240  1.00 20.00     0.227 C 
HETATM    7  O10 UNL     1     -33.671   6.701   6.200  1.00 20.00    -0.279 OA
HETATM    8 CL11 UNL     1     -35.321   4.827   5.299  1.00 20.00    -0.043 Cl
ENDBRANCH   4   6
BRANCH   5   9
HETATM    9  C8  UNL     1     -32.581   6.957   0.661  1.00 20.00     0.009 C 
BRANCH   9  10
HETATM   10  C9  UNL     1     -32.409   8.461   0.363  1.00 20.00    -0.004 C 
HETATM   11  C7  UNL     1     -33.708   9.242   0.488  1.00 20.00     0.005 C 
ENDBRANCH   9  10
ENDBRANCH   5   9
TORSDOF 3
