REMARK  5 active torsions:
REMARK  status: ('A' for Active; 'I' for Inactive)
REMARK    1  A    between atoms: C2_2  and  C4_4 
REMARK    2  A    between atoms: C4_4  and  N7_7 
REMARK    3  A    between atoms: C5_5  and  C6_6 
REMARK    4  A    between atoms: C5_5  and  N7_7 
REMARK    5  A    between atoms: C6_6  and  S8_8 
ROOT
HETATM    1  C1  UNL     1     -32.806   8.229   0.892  1.00 20.00    -0.109 C 
HETATM    2  C2  UNL     1     -32.452   7.798   1.956  1.00 20.00    -0.077 C 
HETATM    3  C3  UNL     1     -33.236   8.753  -0.403  1.00 20.00     0.112 C 
ENDROOT
BRANCH   2   4
HETATM    4  C4  UNL     1     -32.013   7.273   3.253  1.00 20.00     0.362 C 
BRANCH   4   5
HETATM    5  N7  UNL     1     -33.155   6.982   4.109  1.00 20.00     0.095 N 
HETATM    6  H18 UNL     1     -32.845   6.944   5.080  1.00 20.00     0.317 HD
BRANCH   5   7
HETATM    7  C5  UNL     1     -33.764   5.709   3.750  1.00 20.00     0.280 C 
BRANCH   7   8
HETATM    8  C6  UNL     1     -34.963   5.355   4.620  1.00 20.00     0.100 C 
BRANCH   8   9
HETATM    9  S8  UNL     1     -34.514   5.184   6.373  1.00 20.00    -0.180 SA
HETATM   10  H19 UNL     1     -35.747   4.888   6.804  1.00 20.00     0.101 HD
ENDBRANCH   8   9
ENDBRANCH   7   8
ENDBRANCH   5   7
ENDBRANCH   4   5
ENDBRANCH   2   4
TORSDOF 5
