REMARK  0 active torsions:
REMARK  status: ('A' for Active; 'I' for Inactive)
ROOT
HETATM    1  C1  UNL     1     -33.255   6.988   4.658  1.00 20.00     0.149 C 
HETATM    2  C2  UNL     1     -33.502   6.376   3.492  1.00 20.00     0.010 C 
HETATM    3  C3  UNL     1     -34.367   5.155   3.414  1.00 20.00     0.050 C 
HETATM    4  C4  UNL     1     -35.145   4.970   4.716  1.00 20.00     0.032 C 
HETATM    5  C5  UNL     1     -34.240   5.249   5.911  1.00 20.00     0.174 C 
HETATM    6  O6  UNL     1     -33.695   6.575   5.890  1.00 20.00    -0.362 OA
HETATM    7 BR7  UNL     1     -32.842   7.014   1.870  1.00 20.00    -0.054 Br
ENDROOT
TORSDOF 0
