REMARK  0 active torsions:
REMARK  status: ('A' for Active; 'I' for Inactive)
ROOT
HETATM    1  C1  UNL     1     -32.774   7.474   2.410  1.00 20.00     0.099 C 
HETATM    2  C2  UNL     1     -34.067   6.819   5.644  1.00 20.00    -0.026 C 
HETATM    3  C3  UNL     1     -33.110   7.160   4.771  1.00 20.00     0.019 C 
HETATM    4  C4  UNL     1     -34.981   5.662   5.390  1.00 20.00     0.057 C 
HETATM    5  C5  UNL     1     -34.455   4.740   4.284  1.00 20.00     0.277 C 
HETATM    6  C6  UNL     1     -32.917   6.441   3.454  1.00 20.00     0.350 C 
HETATM    7  C7  UNL     1     -33.651   4.608   2.023  1.00 20.00     0.312 C 
HETATM    8  N8  UNL     1     -32.661   8.286   1.589  1.00 20.00    -0.195 NA
HETATM    9  N9  UNL     1     -34.024   5.517   3.112  1.00 20.00     0.106 N 
ENDROOT
TORSDOF 0
