REMARK  2 active torsions:
REMARK  status: ('A' for Active; 'I' for Inactive)
REMARK    1  A    between atoms: C2_2  and  C6_6 
REMARK    2  A    between atoms: C3_3  and  C7_7 
ROOT
HETATM    1  C1  UNL     1     -32.876   4.686   2.436  1.00 20.00     0.100 A 
HETATM    2  C2  UNL     1     -32.651   6.170   2.588  1.00 20.00     0.089 A 
HETATM    3  C3  UNL     1     -34.463   4.987   4.015  1.00 20.00     0.168 A 
HETATM    4  N8  UNL     1     -33.770   4.044   3.120  1.00 20.00    -0.289 NA
HETATM    5  S9  UNL     1     -33.771   6.659   3.912  1.00 20.00    -0.132 SA
ENDROOT
BRANCH   2   6
HETATM    6  C6  UNL     1     -32.982   6.887   1.291  1.00 20.00     0.016 C 
HETATM    7  C4  UNL     1     -32.793   8.368   1.405  1.00 20.00     0.006 C 
ENDBRANCH   2   6
BRANCH   3   8
HETATM    8  C7  UNL     1     -34.359   4.467   5.442  1.00 20.00     0.033 C 
HETATM    9  C5  UNL     1     -35.075   5.352   6.411  1.00 20.00     0.008 C 
ENDBRANCH   3   8
TORSDOF 2
