REMARK  2 active torsions:
REMARK  status: ('A' for Active; 'I' for Inactive)
REMARK    1  A    between atoms: C2_2  and  C6_6 
REMARK    2  A    between atoms: C3_3  and  C7_7 
ROOT
HETATM    1  C1  UNL     1     -33.540   4.411   3.399  1.00 20.00     0.100 C 
HETATM    2  C2  UNL     1     -33.671   5.587   2.463  1.00 20.00     0.089 C 
HETATM    3  C3  UNL     1     -35.232   5.399   4.524  1.00 20.00     0.168 C 
HETATM    4  N8  UNL     1     -34.285   4.272   4.450  1.00 20.00    -0.289 NA
HETATM    5  S9  UNL     1     -35.106   6.486   3.079  1.00 20.00    -0.132 SA
ENDROOT
BRANCH   2   6
HETATM    6  C6  UNL     1     -32.418   6.443   2.514  1.00 20.00     0.016 C 
HETATM    7  C4  UNL     1     -32.516   7.636   1.616  1.00 20.00     0.006 C 
ENDBRANCH   2   6
BRANCH   3   8
HETATM    8  C7  UNL     1     -34.952   6.186   5.797  1.00 20.00     0.033 C 
HETATM    9  C5  UNL     1     -33.570   6.759   5.804  1.00 20.00     0.008 C 
ENDBRANCH   3   8
TORSDOF 2
