REMARK  2 active torsions:
REMARK  status: ('A' for Active; 'I' for Inactive)
REMARK    1  A    between atoms: C1_1  and  C8_8 
REMARK    2  A    between atoms: C2_2  and  C3_3 
ROOT
HETATM    1  C1  UNL     1     -33.230   7.172   3.433  1.00 20.00    -0.009 C 
HETATM    2  C3  UNL     1     -33.660   5.943   3.777  1.00 20.00    -0.027 C 
HETATM    3  C4  UNL     1     -33.604   4.674   2.990  1.00 20.00     0.051 C 
ENDROOT
BRANCH   1   4
HETATM    4  C8  UNL     1     -32.590   7.659   2.136  1.00 20.00    -0.033 C 
HETATM    5  C5  UNL     1     -31.191   8.227   2.472  1.00 20.00     0.018 C 
HETATM    6  C6  UNL     1     -32.393   6.497   1.147  1.00 20.00     0.018 C 
HETATM    7  C7  UNL     1     -33.396   8.795   1.482  1.00 20.00     0.018 C 
ENDBRANCH   1   4
BRANCH   2   8
HETATM    8  C2  UNL     1     -34.264   5.836   5.138  1.00 20.00     0.265 C 
HETATM    9  O9  UNL     1     -34.705   4.787   5.594  1.00 20.00    -0.302 OA
ENDBRANCH   2   8
TORSDOF 2
