REMARK  2 active torsions:
REMARK  status: ('A' for Active; 'I' for Inactive)
REMARK    1  A    between atoms: C2_2  and  C7_7 
REMARK    2  A    between atoms: C3_3  and  C7_7 
ROOT
HETATM    1  C6  UNL     1     -33.491   4.307   2.433  1.00 20.00     0.022 C 
HETATM    2  C7  UNL     1     -33.251   5.714   2.972  1.00 20.00     0.073 C 
ENDROOT
BRANCH   2   3
HETATM    3  C2  UNL     1     -33.520   6.756   1.923  1.00 20.00    -0.019 C 
HETATM    4  C1  UNL     1     -32.598   7.630   1.494  1.00 20.00    -0.034 C 
HETATM    5  C4  UNL     1     -32.858   8.666   0.451  1.00 20.00     0.036 C 
ENDBRANCH   2   3
BRANCH   2   6
HETATM    6  C3  UNL     1     -34.175   6.009   4.149  1.00 20.00     0.130 C 
HETATM    7  C5  UNL     1     -33.640   6.929   5.217  1.00 20.00     0.091 C 
HETATM    8  O8  UNL     1     -35.289   5.496   4.257  1.00 20.00    -0.298 OA
ENDBRANCH   2   6
TORSDOF 2
