REMARK  0 active torsions:
REMARK  status: ('A' for Active; 'I' for Inactive)
ROOT
HETATM    1  C1  UNL     1     -33.328   7.785   1.368  1.00 20.00     0.037 C 
HETATM    2  C2  UNL     1     -34.009   6.601   3.022  1.00 20.00     0.017 C 
HETATM    3  C3  UNL     1     -33.230   8.852   0.568  1.00 20.00    -0.063 C 
HETATM    4  C4  UNL     1     -32.326   6.668   1.406  1.00 20.00     0.074 C 
HETATM    5  C5  UNL     1     -32.652   5.982   2.740  1.00 20.00    -0.002 C 
HETATM    6  C6  UNL     1     -34.893   6.111   4.126  1.00 20.00     0.066 C 
HETATM    7  C7  UNL     1     -34.260   9.944   0.567  1.00 20.00     0.045 C 
HETATM    8  C8  UNL     1     -32.082   9.030  -0.384  1.00 20.00     0.045 C 
HETATM    9  C9  UNL     1     -32.722   4.466   2.590  1.00 20.00     0.021 C 
HETATM   10  C10 UNL     1     -31.660   6.382   3.835  1.00 20.00     0.021 C 
HETATM   11  N11 UNL     1     -34.347   7.602   2.269  1.00 20.00    -0.262 NA
ENDROOT
TORSDOF 0
