REMARK  1 active torsions:
REMARK  status: ('A' for Active; 'I' for Inactive)
REMARK    1  A    between atoms: C3_3  and  C6_6 
ROOT
HETATM    1  C1  UNL     1     -34.397   5.612   6.191  1.00 20.00    -0.030 C 
HETATM    2  C2  UNL     1     -34.951   4.719   5.367  1.00 20.00    -0.030 C 
HETATM    3  C4  UNL     1     -34.007   6.865   5.480  1.00 20.00     0.038 C 
HETATM    4  C5  UNL     1     -35.028   5.223   3.964  1.00 20.00     0.038 C 
HETATM    5  C6  UNL     1     -34.208   6.513   4.006  1.00 20.00     0.054 C 
ENDROOT
BRANCH   5   6
HETATM    6  C3  UNL     1     -32.878   6.316   3.338  1.00 20.00     0.236 C 
HETATM    7  O7  UNL     1     -32.500   6.978   2.377  1.00 20.00    -0.306 OA
ENDBRANCH   5   6
TORSDOF 1
