REMARK  2 active torsions:
REMARK  status: ('A' for Active; 'I' for Inactive)
REMARK    1  A    between atoms: C2_2  and  C3_3 
REMARK    2  A    between atoms: C4_4  and  C5_5 
ROOT
HETATM    1  C1  UNL     1     -32.921   7.117   4.699  1.00 20.00    -0.020 C 
HETATM    2  C2  UNL     1     -33.397   6.453   3.639  1.00 20.00    -0.062 C 
HETATM    3  C6  UNL     1     -33.472   6.581   5.978  1.00 20.00     0.028 C 
HETATM    4  C7  UNL     1     -34.343   5.367   4.043  1.00 20.00     0.038 C 
HETATM    5  C8  UNL     1     -34.630   5.703   5.507  1.00 20.00     0.008 C 
ENDROOT
BRANCH   2   6
HETATM    6  C3  UNL     1     -33.063   6.694   2.271  1.00 20.00     0.010 C 
HETATM    7  C4  UNL     1     -32.909   7.924   1.757  1.00 20.00     0.050 C 
BRANCH   7   8
HETATM    8  C5  UNL     1     -32.561   8.111   0.320  1.00 20.00     0.145 C 
HETATM    9  C9  UNL     1     -33.064   9.368  -0.339  1.00 20.00     0.096 C 
HETATM   10  O10 UNL     1     -31.878   7.299  -0.299  1.00 20.00    -0.294 OA
ENDBRANCH   7   8
ENDBRANCH   2   6
TORSDOF 2
