REMARK  3 active torsions:
REMARK  status: ('A' for Active; 'I' for Inactive)
REMARK    1  A    between atoms: C1_1  and  C7_7 
REMARK    2  A    between atoms: C7_7  and  C8_8 
REMARK    3  A    between atoms: N9_9  and  N10_10 
ROOT
HETATM    1  C1  UNL     1     -33.021   7.272   4.745  1.00 20.00     0.023 C 
HETATM    2  C2  UNL     1     -32.580   8.590   5.347  1.00 20.00     0.067 C 
HETATM    3  N9  UNL     1     -33.925   6.485   5.248  1.00 20.00    -0.209 NA
ENDROOT
BRANCH   1   4
HETATM    4  C7  UNL     1     -32.321   6.814   3.475  1.00 20.00     0.059 C 
BRANCH   4   5
HETATM    5  C8  UNL     1     -33.009   7.350   2.212  1.00 20.00    -0.017 C 
HETATM    6  C3  UNL     1     -33.027   8.880   2.184  1.00 20.00     0.010 C 
HETATM    7  C4  UNL     1     -32.302   6.817   0.965  1.00 20.00     0.010 C 
ENDBRANCH   4   5
ENDBRANCH   1   4
BRANCH   3   8
HETATM    8  N10 UNL     1     -34.165   5.353   4.542  1.00 20.00    -0.217 NA
HETATM    9  C5  UNL     1     -35.549   5.220   4.073  1.00 20.00     0.138 C 
HETATM   10  C6  UNL     1     -33.789   4.128   5.253  1.00 20.00     0.138 C 
ENDBRANCH   3   8
TORSDOF 3
