REMARK  0 active torsions:
REMARK  status: ('A' for Active; 'I' for Inactive)
ROOT
HETATM    1  C1  UNL     1     -34.302   4.713   4.319  1.00 20.00     0.131 C 
HETATM    2  C2  UNL     1     -34.003   5.025   5.757  1.00 20.00     0.079 C 
HETATM    3  C3  UNL     1     -33.747   6.523   5.711  1.00 20.00     0.013 C 
HETATM    4  C4  UNL     1     -34.209   6.226   2.251  1.00 20.00     0.021 C 
HETATM    5  C5  UNL     1     -33.833   8.118   3.700  1.00 20.00     0.014 C 
HETATM    6  C6  UNL     1     -34.865   5.908   3.590  1.00 20.00     0.060 C 
HETATM    7  C7  UNL     1     -34.571   7.075   4.542  1.00 20.00    -0.002 C 
HETATM    8  C8  UNL     1     -33.199   7.355   2.522  1.00 20.00    -0.047 C 
HETATM    9  C9  UNL     1     -31.814   6.784   2.866  1.00 20.00     0.015 C 
HETATM   10  C10 UNL     1     -33.049   8.271   1.300  1.00 20.00     0.015 C 
HETATM   11  O11 UNL     1     -34.172   3.602   3.823  1.00 20.00    -0.298 OA
ENDROOT
TORSDOF 0
