REMARK  0 active torsions:
REMARK  status: ('A' for Active; 'I' for Inactive)
ROOT
HETATM    1  C1  UNL     1     -33.412   6.832   4.165  1.00 20.00     0.011 C 
HETATM    2  C2  UNL     1     -32.485   7.438   3.147  1.00 20.00     0.054 C 
HETATM    3  C3  UNL     1     -32.777   6.590   1.908  1.00 20.00     0.006 C 
HETATM    4  C4  UNL     1     -35.198   5.457   5.805  1.00 20.00     0.022 C 
HETATM    5  C5  UNL     1     -33.341   5.273   2.446  1.00 20.00     0.011 C 
HETATM    6  C6  UNL     1     -34.572   4.698   4.642  1.00 20.00     0.012 C 
HETATM    7  C7  UNL     1     -34.230   6.492   6.374  1.00 20.00     0.148 C 
HETATM    8  C8  UNL     1     -34.243   5.725   3.587  1.00 20.00     0.033 C 
HETATM    9  N9  UNL     1     -33.429   7.227   5.386  1.00 20.00    -0.298 NA
ENDROOT
TORSDOF 0
