REMARK  1 active torsions:
REMARK  status: ('A' for Active; 'I' for Inactive)
REMARK    1  A    between atoms: C1_1  and  C5_5 
ROOT
HETATM    1  C2  UNL     1     -33.395   5.671   6.293  1.00 20.00     0.006 C 
HETATM    2  C3  UNL     1     -34.656   4.904   5.870  1.00 20.00     0.006 C 
HETATM    3  C4  UNL     1     -34.862   7.129   5.127  1.00 20.00     0.011 C 
HETATM    4  C5  UNL     1     -32.938   6.334   3.920  1.00 20.00     0.059 C 
HETATM    5  C6  UNL     1     -33.368   6.857   5.311  1.00 20.00    -0.003 C 
HETATM    6  C7  UNL     1     -35.157   5.702   4.650  1.00 20.00    -0.006 C 
HETATM    7  C8  UNL     1     -34.200   5.563   3.419  1.00 20.00    -0.034 C 
HETATM    8  C9  UNL     1     -34.864   6.173   2.167  1.00 20.00     0.016 C 
HETATM    9  C10 UNL     1     -33.852   4.104   3.078  1.00 20.00     0.016 C 
ENDROOT
BRANCH   4  10
HETATM   10  C1  UNL     1     -32.495   7.466   3.041  1.00 20.00     0.236 C 
HETATM   11  O11 UNL     1     -32.099   7.314   1.890  1.00 20.00    -0.306 OA
ENDBRANCH   4  10
TORSDOF 1
