REMARK  0 active torsions:
REMARK  status: ('A' for Active; 'I' for Inactive)
ROOT
HETATM    1  C1  UNL     1     -34.502   6.615   3.570  1.00 20.00     0.292 C 
HETATM    2  C2  UNL     1     -34.094   4.307   3.853  1.00 20.00     0.346 C 
HETATM    3  C3  UNL     1     -33.044   6.625   3.068  1.00 20.00     0.029 C 
HETATM    4  C4  UNL     1     -32.082   7.366   4.001  1.00 20.00     0.028 C 
HETATM    5  C5  UNL     1     -32.958   7.229   1.662  1.00 20.00     0.028 C 
HETATM    6  C6  UNL     1     -34.461   5.663   5.835  1.00 20.00     0.310 C 
HETATM    7  N7  UNL     1     -34.789   5.458   4.431  1.00 20.00     0.094 N 
HETATM    8  S8  UNL     1     -32.593   4.859   3.000  1.00 20.00    -0.128 SA
ENDROOT
TORSDOF 0
