REMARK  2 active torsions:
REMARK  status: ('A' for Active; 'I' for Inactive)
REMARK       I    between atoms: C1_1  and  N9_9 
REMARK    1  A    between atoms: C7_7  and  C8_8 
REMARK    2  A    between atoms: C7_7  and  N9_9 
ROOT
HETATM    1  C3  UNL     1     -33.329   4.323   2.506  1.00 20.00     0.033 C 
HETATM    2  C7  UNL     1     -33.403   5.641   3.280  1.00 20.00     0.087 C 
ENDROOT
BRANCH   2   3
HETATM    3  C8  UNL     1     -34.452   5.666   4.439  1.00 20.00    -0.031 C 
HETATM    4  C4  UNL     1     -34.469   7.018   5.177  1.00 20.00     0.016 C 
HETATM    5  C5  UNL     1     -35.867   5.392   3.890  1.00 20.00     0.016 C 
HETATM    6  C6  UNL     1     -34.126   4.556   5.463  1.00 20.00     0.016 C 
ENDBRANCH   2   3
BRANCH   2   7
HETATM    7  N9  UNL     1     -33.609   6.723   2.340  1.00 20.00    -0.356 N 
HETATM    8  C1  UNL     1     -32.675   7.715   2.119  1.00 20.00     0.213 C 
HETATM    9  C2  UNL     1     -33.097   8.728   1.106  1.00 20.00     0.117 C 
HETATM   10  O10 UNL     1     -31.582   7.822   2.661  1.00 20.00    -0.274 OA
HETATM   11  H27 UNL     1     -34.479   6.754   1.820  1.00 20.00     0.162 HD
ENDBRANCH   2   7
TORSDOF 2
