REMARK  1 active torsions:
REMARK  status: ('A' for Active; 'I' for Inactive)
REMARK    1  A    between atoms: C1_1  and  C6_6 
ROOT
HETATM    1  C2  UNL     1     -33.307   4.401   3.299  1.00 20.00     0.001 C 
HETATM    2  C3  UNL     1     -34.705   4.630   3.864  1.00 20.00     0.011 C 
HETATM    3  C4  UNL     1     -32.974   5.400   2.194  1.00 20.00     0.009 C 
HETATM    4  C5  UNL     1     -34.500   7.110   3.282  1.00 20.00     0.020 C 
HETATM    5  C6  UNL     1     -34.947   6.069   4.316  1.00 20.00     0.048 C 
HETATM    6  C7  UNL     1     -33.111   6.871   2.640  1.00 20.00    -0.047 C 
HETATM    7  C8  UNL     1     -31.974   7.253   3.607  1.00 20.00     0.015 C 
HETATM    8  C9  UNL     1     -32.981   7.779   1.399  1.00 20.00     0.015 C 
ENDROOT
BRANCH   5   9
HETATM    9  C1  UNL     1     -34.343   6.338   5.663  1.00 20.00     0.235 C 
HETATM   10  O10 UNL     1     -33.992   7.452   6.036  1.00 20.00    -0.306 OA
ENDBRANCH   5   9
TORSDOF 1
