REMARK  0 active torsions:
REMARK  status: ('A' for Active; 'I' for Inactive)
ROOT
HETATM    1  C1  UNL     1     -32.658   5.533   1.360  1.00 20.00     0.143 A 
HETATM    2  C2  UNL     1     -33.775   4.862   3.207  1.00 20.00     0.059 A 
HETATM    3  C3  UNL     1     -33.925   6.180   3.599  1.00 20.00     0.063 A 
HETATM    4  C4  UNL     1     -32.812   6.856   1.749  1.00 20.00     0.048 A 
HETATM    5  C5  UNL     1     -34.445   3.927   4.167  1.00 20.00     0.062 C 
HETATM    6  C6  UNL     1     -34.582   4.834   5.401  1.00 20.00     0.016 C 
HETATM    7  C7  UNL     1     -34.726   6.278   4.870  1.00 20.00     0.036 C 
HETATM    8  C8  UNL     1     -32.258   7.951   0.905  1.00 20.00     0.072 C 
HETATM    9  C9  UNL     1     -34.212   7.317   5.852  1.00 20.00     0.016 C 
HETATM   10  N10 UNL     1     -33.144   4.500   2.082  1.00 20.00    -0.261 NA
HETATM   11  N11 UNL     1     -33.460   7.211   2.881  1.00 20.00    -0.254 NA
ENDROOT
TORSDOF 0
