REMARK  3 active torsions:
REMARK  status: ('A' for Active; 'I' for Inactive)
REMARK    1  A    between atoms: C2_2  and  C7_7 
REMARK    2  A    between atoms: C5_5  and  C8_8 
REMARK    3  A    between atoms: C7_7  and  C8_8 
ROOT
HETATM    1  C3  UNL     1     -34.746   5.942   5.551  1.00 20.00     0.281 C 
HETATM    2  C4  UNL     1     -34.667   4.437   5.340  1.00 20.00     0.106 C 
HETATM    3  C5  UNL     1     -33.700   5.986   3.441  1.00 20.00     0.282 C 
HETATM    4  N9  UNL     1     -33.646   6.543   4.795  1.00 20.00     0.098 N 
HETATM    5  S10 UNL     1     -34.278   4.265   3.583  1.00 20.00    -0.132 SA
HETATM    6  H25 UNL     1     -33.739   7.557   4.768  1.00 20.00     0.317 HD
ENDROOT
BRANCH   3   7
HETATM    7  C8  UNL     1     -32.329   6.049   2.788  1.00 20.00     0.050 C 
BRANCH   7   8
HETATM    8  C7  UNL     1     -31.841   7.491   2.651  1.00 20.00     0.030 C 
BRANCH   8   9
HETATM    9  C2  UNL     1     -32.766   8.299   1.788  1.00 20.00    -0.031 C 
HETATM   10  C1  UNL     1     -32.610   8.450   0.464  1.00 20.00    -0.035 C 
HETATM   11  C6  UNL     1     -33.525   9.258  -0.394  1.00 20.00     0.036 C 
ENDBRANCH   8   9
ENDBRANCH   7   8
ENDBRANCH   3   7
TORSDOF 3
