REMARK  2 active torsions:
REMARK  status: ('A' for Active; 'I' for Inactive)
REMARK    1  A    between atoms: C1_1  and  C6_6 
REMARK    2  A    between atoms: C7_7  and  N8_8 
ROOT
HETATM    1  C3  UNL     1     -33.456   4.168   4.882  1.00 20.00     0.039 C 
HETATM    2  C4  UNL     1     -34.802   5.748   6.300  1.00 20.00     0.039 C 
HETATM    3  C5  UNL     1     -35.527   5.250   3.946  1.00 20.00     0.039 C 
HETATM    4  C7  UNL     1     -34.332   5.421   4.883  1.00 20.00     0.042 C 
ENDROOT
BRANCH   4   5
HETATM    5  N8  UNL     1     -33.524   6.552   4.405  1.00 20.00    -0.296 NA
HETATM    6  C1  UNL     1     -33.078   6.367   3.215  1.00 20.00     0.084 C 
BRANCH   6   7
HETATM    7  C6  UNL     1     -32.224   7.413   2.556  1.00 20.00     0.042 C 
HETATM    8  C2  UNL     1     -32.910   7.927   1.305  1.00 20.00     0.010 C 
ENDBRANCH   6   7
ENDBRANCH   4   5
TORSDOF 2
