REMARK  1 active torsions:
REMARK  status: ('A' for Active; 'I' for Inactive)
REMARK    1  A    between atoms: C10_10  and  O11_11 
ROOT
HETATM    1  C1  UNL     1     -32.327   5.622   2.976  1.00 20.00    -0.025 C 
HETATM    2  C2  UNL     1     -33.541   5.571   2.408  1.00 20.00    -0.025 C 
HETATM    3  C3  UNL     1     -33.113   6.052   5.883  1.00 20.00     0.008 C 
HETATM    4  C4  UNL     1     -34.276   5.122   5.551  1.00 20.00     0.032 C 
HETATM    5  C5  UNL     1     -32.956   7.791   2.541  1.00 20.00     0.018 C 
HETATM    6  C6  UNL     1     -32.180   6.988   3.598  1.00 20.00     0.013 C 
HETATM    7  C7  UNL     1     -34.207   6.904   2.651  1.00 20.00     0.015 C 
HETATM    8  C8  UNL     1     -33.129   7.148   4.818  1.00 20.00     0.000 C 
HETATM    9  C9  UNL     1     -34.541   7.099   4.155  1.00 20.00     0.027 C 
HETATM   10  C10 UNL     1     -35.324   6.029   4.914  1.00 20.00     0.123 C 
ENDROOT
BRANCH  10  11
HETATM   11  O11 UNL     1     -36.205   5.295   4.089  1.00 20.00    -0.395 OA
HETATM   12  H25 UNL     1     -36.642   4.632   4.652  1.00 20.00     0.210 HD
ENDBRANCH  10  11
TORSDOF 1
