REMARK  0 active torsions:
REMARK  status: ('A' for Active; 'I' for Inactive)
ROOT
HETATM    1  C1  UNL     1     -32.659   7.690   1.148  1.00 20.00     0.015 C 
HETATM    2  C2  UNL     1     -33.003   6.783   1.855  1.00 20.00    -0.071 C 
HETATM    3  C3  UNL     1     -33.600   6.968   4.864  1.00 20.00     0.039 C 
HETATM    4  C4  UNL     1     -33.248   4.522   4.914  1.00 20.00     0.039 C 
HETATM    5  C5  UNL     1     -35.114   6.695   4.867  1.00 20.00     0.273 C 
HETATM    6  C6  UNL     1     -34.770   4.313   4.844  1.00 20.00     0.273 C 
HETATM    7  C7  UNL     1     -34.956   5.527   2.767  1.00 20.00     0.329 C 
HETATM    8  C8  UNL     1     -32.877   5.809   4.155  1.00 20.00     0.043 C 
HETATM    9  C9  UNL     1     -33.423   5.673   2.721  1.00 20.00     0.195 C 
HETATM   10  N10 UNL     1     -35.449   5.436   4.163  1.00 20.00     0.092 N 
HETATM   11  F11 UNL     1     -32.900   4.537   2.173  1.00 20.00    -0.227 F 
ENDROOT
TORSDOF 0
