REMARK  2 active torsions:
REMARK  status: ('A' for Active; 'I' for Inactive)
REMARK    1  A    between atoms: C1_1  and  S9_9 
REMARK    2  A    between atoms: C2_2  and  N7_7 
ROOT
HETATM    1  C1  UNL     1     -33.888   7.509   1.810  1.00 20.00     0.102 C 
HETATM    2  C2  UNL     1     -33.384   7.024   2.962  1.00 20.00     0.011 C 
HETATM    3  C3  UNL     1     -31.900   7.136   3.212  1.00 20.00     0.068 C 
ENDROOT
BRANCH   2   4
HETATM    4  N7  UNL     1     -34.081   6.418   3.972  1.00 20.00    -0.393 N 
HETATM    5  C4  UNL     1     -33.640   6.508   5.355  1.00 20.00     0.148 C 
HETATM    6  C5  UNL     1     -35.413   5.873   3.751  1.00 20.00     0.148 C 
ENDBRANCH   2   4
BRANCH   1   7
HETATM    7  S9  UNL     1     -32.853   8.280   0.574  1.00 20.00     0.036 S 
HETATM    8  C6  UNL     1     -32.981   9.967   1.208  1.00 20.00     0.132 C 
HETATM    9  O8  UNL     1     -33.627   8.202  -0.707  1.00 20.00    -0.254 OA
ENDBRANCH   1   7
TORSDOF 2
