REMARK  0 active torsions:
REMARK  status: ('A' for Active; 'I' for Inactive)
ROOT
HETATM    1  C1  UNL     1     -33.283   6.531   2.931  1.00 20.00     0.135 C 
HETATM    2  C2  UNL     1     -34.681   6.237   4.866  1.00 20.00     0.092 C 
HETATM    3  C3  UNL     1     -34.627   4.793   4.347  1.00 20.00     0.073 C 
HETATM    4  C4  UNL     1     -34.557   6.390   6.375  1.00 20.00     0.033 C 
HETATM    5  C5  UNL     1     -33.652   3.869   5.068  1.00 20.00     0.024 C 
HETATM    6  N6  UNL     1     -33.655   6.990   4.171  1.00 20.00    -0.370 N 
HETATM    7  S7  UNL     1     -32.242   7.318   1.904  1.00 20.00    -0.053 SA
HETATM    8  S8  UNL     1     -34.074   4.999   2.612  1.00 20.00    -0.094 SA
HETATM    9  H17 UNL     1     -33.181   7.769   4.611  1.00 20.00     0.161 HD
ENDROOT
TORSDOF 0
