REMARK  2 active torsions:
REMARK  status: ('A' for Active; 'I' for Inactive)
REMARK    1  A    between atoms: C7_7  and  C10_10 
REMARK    2  A    between atoms: C7_7  and  O11_11 
ROOT
HETATM    1  C1  UNL     1     -34.712   4.774   6.129  1.00 20.00     0.000 C 
HETATM    2  C2  UNL     1     -35.017   6.252   6.346  1.00 20.00     0.000 C 
HETATM    3  C3  UNL     1     -34.727   4.307   4.673  1.00 20.00     0.003 C 
HETATM    4  C4  UNL     1     -34.136   7.224   5.561  1.00 20.00     0.003 C 
HETATM    5  C5  UNL     1     -33.517   4.809   3.884  1.00 20.00     0.038 C 
HETATM    6  C6  UNL     1     -34.457   7.226   4.069  1.00 20.00     0.038 C 
HETATM    7  C7  UNL     1     -33.697   6.188   3.225  1.00 20.00     0.061 C 
ENDROOT
BRANCH   7   8
HETATM    8  C10 UNL     1     -32.322   6.725   2.803  1.00 20.00     0.012 C 
HETATM    9  C8  UNL     1     -32.454   7.592   1.556  1.00 20.00     0.012 C 
HETATM   10  C9  UNL     1     -31.688   7.509   3.946  1.00 20.00     0.012 C 
ENDBRANCH   7   8
BRANCH   7  11
HETATM   11  O11 UNL     1     -34.454   5.985   2.022  1.00 20.00    -0.389 OA
HETATM   12  H31 UNL     1     -33.928   5.385   1.476  1.00 20.00     0.210 HD
ENDBRANCH   7  11
TORSDOF 2
