REMARK  2 active torsions:
REMARK  status: ('A' for Active; 'I' for Inactive)
REMARK    1  A    between atoms: C6_6  and  C10_10 
REMARK    2  A    between atoms: C7_7  and  C11_11 
ROOT
HETATM    1  C1  UNL     1     -33.022   8.205  -0.205  1.00 20.00     0.059 C 
HETATM    2  C10 UNL     1     -31.917   7.275  -0.012  1.00 20.00     0.128 C 
HETATM    3  N12 UNL     1     -33.889   8.954  -0.388  1.00 20.00    -0.197 NA
ENDROOT
BRANCH   2   4
HETATM    4  C6  UNL     1     -32.212   6.620   1.336  1.00 20.00    -0.002 C 
HETATM    5  C2  UNL     1     -32.224   7.667   2.457  1.00 20.00     0.006 C 
HETATM    6  C4  UNL     1     -32.567   7.044   3.809  1.00 20.00     0.005 C 
HETATM    7  C7  UNL     1     -33.898   6.281   3.760  1.00 20.00    -0.011 C 
HETATM    8  C5  UNL     1     -33.885   5.234   2.640  1.00 20.00     0.005 C 
HETATM    9  C3  UNL     1     -33.542   5.857   1.288  1.00 20.00     0.006 C 
BRANCH   7  10
HETATM   10  C11 UNL     1     -34.194   5.626   5.108  1.00 20.00    -0.019 C 
HETATM   11  C8  UNL     1     -34.251   6.677   6.214  1.00 20.00     0.010 C 
HETATM   12  C9  UNL     1     -35.501   4.840   5.047  1.00 20.00     0.010 C 
ENDBRANCH   7  10
ENDBRANCH   2   4
TORSDOF 2
