REMARK  3 active torsions:
REMARK  status: ('A' for Active; 'I' for Inactive)
REMARK    1  A    between atoms: C1_1  and  C7_7 
REMARK    2  A    between atoms: C6_6  and  C7_7 
REMARK    3  A    between atoms: C6_6  and  C8_8 
ROOT
HETATM    1  C6  UNL     1     -33.668   6.483   2.225  1.00 20.00     0.019 C 
ENDROOT
BRANCH   1   2
HETATM    2  C7  UNL     1     -33.577   5.790   3.597  1.00 20.00     0.043 C 
HETATM    3  C2  UNL     1     -34.532   4.597   3.658  1.00 20.00     0.017 C 
BRANCH   2   4
HETATM    4  C1  UNL     1     -33.977   6.733   4.712  1.00 20.00     0.235 C 
HETATM    5  O9  UNL     1     -33.242   7.010   5.655  1.00 20.00    -0.306 OA
ENDBRANCH   2   4
ENDBRANCH   1   2
BRANCH   1   6
HETATM    6  C8  UNL     1     -32.811   7.766   2.020  1.00 20.00    -0.051 C 
HETATM    7  C3  UNL     1     -32.423   7.980   0.549  1.00 20.00     0.014 C 
HETATM    8  C4  UNL     1     -33.554   9.013   2.532  1.00 20.00     0.014 C 
HETATM    9  C5  UNL     1     -31.516   7.606   2.843  1.00 20.00     0.014 C 
ENDBRANCH   1   6
TORSDOF 3
