REMARK  5 active torsions:
REMARK  status: ('A' for Active; 'I' for Inactive)
REMARK    1  A    between atoms: C5_5  and  C6_6 
REMARK    2  A    between atoms: C5_5  and  C7_7 
REMARK    3  A    between atoms: C6_6  and  C8_8 
REMARK    4  A    between atoms: C7_7  and  C9_9 
REMARK    5  A    between atoms: C8_8  and  O10_10 
ROOT
HETATM    1  C5  UNL     1     -33.216   7.460   2.599  1.00 20.00     0.003 C 
ENDROOT
BRANCH   1   2
HETATM    2  C6  UNL     1     -32.178   7.483   1.469  1.00 20.00     0.031 C 
BRANCH   2   3
HETATM    3  C8  UNL     1     -32.420   8.635   0.487  1.00 20.00     0.114 C 
HETATM    4  C1  UNL     1     -32.850   9.904   1.210  1.00 20.00     0.039 C 
BRANCH   3   5
HETATM    5  O10 UNL     1     -33.434   8.276  -0.449  1.00 20.00    -0.396 OA
HETATM    6  H30 UNL     1     -33.517   9.021  -1.064  1.00 20.00     0.210 HD
ENDBRANCH   3   5
ENDBRANCH   2   3
ENDBRANCH   1   2
BRANCH   1   7
HETATM    7  C7  UNL     1     -32.932   6.317   3.582  1.00 20.00     0.008 C 
BRANCH   7   8
HETATM    8  C9  UNL     1     -33.953   6.152   4.739  1.00 20.00    -0.051 C 
HETATM    9  C2  UNL     1     -33.514   6.937   5.986  1.00 20.00     0.014 C 
HETATM   10  C3  UNL     1     -35.310   6.710   4.264  1.00 20.00     0.014 C 
HETATM   11  C4  UNL     1     -34.139   4.672   5.111  1.00 20.00     0.014 C 
ENDBRANCH   7   8
ENDBRANCH   1   7
TORSDOF 5
