REMARK  0 active torsions:
REMARK  status: ('A' for Active; 'I' for Inactive)
ROOT
HETATM    1  C1  UNL     1     -34.699   5.343   5.582  1.00 20.00     0.047 A 
HETATM    2  C2  UNL     1     -34.319   6.526   6.247  1.00 20.00     0.141 A 
HETATM    3  C3  UNL     1     -34.098   5.431   4.347  1.00 20.00     0.032 A 
HETATM    4  C4  UNL     1     -34.102   4.537   3.157  1.00 20.00     0.059 C 
HETATM    5  C5  UNL     1     -32.948   4.861   2.203  1.00 20.00     0.008 C 
HETATM    6  C6  UNL     1     -32.840   6.369   1.965  1.00 20.00     0.022 C 
HETATM    7  C7  UNL     1     -32.589   7.114   3.277  1.00 20.00     0.151 C 
HETATM    8  N8  UNL     1     -33.537   7.312   5.502  1.00 20.00    -0.185 NA
HETATM    9  N9  UNL     1     -33.428   6.625   4.352  1.00 20.00    -0.274 N 
ENDROOT
TORSDOF 0
