REMARK  2 active torsions:
REMARK  status: ('A' for Active; 'I' for Inactive)
REMARK    1  A    between atoms: C1_1  and  C3_3 
REMARK    2  A    between atoms: C1_1  and  C8_8 
ROOT
HETATM    1  C1  UNL     1     -33.898   5.860   3.461  1.00 20.00     0.134 C 
HETATM    2  O9  UNL     1     -34.793   5.020   3.362  1.00 20.00    -0.297 OA
ENDROOT
BRANCH   1   3
HETATM    3  C3  UNL     1     -34.005   6.986   4.459  1.00 20.00     0.060 A 
HETATM    4  C2  UNL     1     -32.897   7.160   5.438  1.00 20.00     0.017 A 
HETATM    5  C4  UNL     1     -34.243   6.675   5.897  1.00 20.00    -0.007 A 
HETATM    6  C5  UNL     1     -34.396   5.290   6.425  1.00 20.00     0.011 C 
ENDBRANCH   1   3
BRANCH   1   7
HETATM    7  C8  UNL     1     -32.626   5.802   2.621  1.00 20.00     0.048 C 
HETATM    8  C6  UNL     1     -32.675   4.601   1.685  1.00 20.00     0.017 C 
HETATM    9  C7  UNL     1     -32.431   7.096   1.835  1.00 20.00     0.017 C 
ENDBRANCH   1   7
TORSDOF 2
