REMARK  0 active torsions:
REMARK  status: ('A' for Active; 'I' for Inactive)
ROOT
HETATM    1  C1  UNL     1     -33.408   6.102   3.366  1.00 20.00     0.134 C 
HETATM    2  C2  UNL     1     -33.076   6.705   4.718  1.00 20.00     0.109 C 
HETATM    3  C3  UNL     1     -33.985   3.861   4.286  1.00 20.00     0.044 C 
HETATM    4  C4  UNL     1     -34.294   6.693   5.653  1.00 20.00     0.280 C 
HETATM    5  C5  UNL     1     -34.518   4.261   5.665  1.00 20.00     0.273 C 
HETATM    6  C6  UNL     1     -35.678   5.514   4.083  1.00 20.00     0.284 C 
HETATM    7  C7  UNL     1     -34.445   4.991   3.372  1.00 20.00     0.085 C 
HETATM    8  N8  UNL     1     -35.219   5.551   5.487  1.00 20.00     0.089 N 
HETATM    9  O9  UNL     1     -32.820   6.440   2.341  1.00 20.00    -0.297 OA
ENDROOT
TORSDOF 0
