REMARK  1 active torsions:
REMARK  status: ('A' for Active; 'I' for Inactive)
REMARK    1  A    between atoms: C3_3  and  C4_4 
ROOT
HETATM    1  C1  UNL     1     -33.524   6.798   5.648  1.00 20.00     0.065 A 
HETATM    2  C2  UNL     1     -34.591   6.307   6.354  1.00 20.00     0.172 A 
HETATM    3  C3  UNL     1     -33.799   6.422   4.322  1.00 20.00     0.169 A 
HETATM    4  N5  UNL     1     -34.948   5.749   4.213  1.00 20.00    -0.124 NA
HETATM    5  O6  UNL     1     -35.447   5.679   5.508  1.00 20.00    -0.225 OA
ENDROOT
BRANCH   3   6
HETATM    6  C4  UNL     1     -32.987   6.686   3.124  1.00 20.00     0.436 C 
HETATM    7  F7  UNL     1     -31.829   7.385   3.366  1.00 20.00    -0.164 F 
HETATM    8  F8  UNL     1     -32.568   5.556   2.463  1.00 20.00    -0.164 F 
HETATM    9  F9  UNL     1     -33.646   7.422   2.171  1.00 20.00    -0.164 F 
ENDBRANCH   3   6
TORSDOF 1
