REMARK  1 active torsions:
REMARK  status: ('A' for Active; 'I' for Inactive)
REMARK    1  A    between atoms: C4_4  and  C7_7 
ROOT
HETATM    1  C1  UNL     1     -34.138   6.803   4.040  1.00 20.00     0.035 A 
HETATM    2  C2  UNL     1     -33.514   7.787   3.387  1.00 20.00    -0.008 A 
HETATM    3  C3  UNL     1     -33.771   5.477   3.526  1.00 20.00     0.085 A 
HETATM    4  C4  UNL     1     -32.573   7.426   2.282  1.00 20.00     0.080 A 
HETATM    5  N8  UNL     1     -34.209   4.347   3.952  1.00 20.00    -0.293 NA
HETATM    6  S9  UNL     1     -32.619   5.600   2.215  1.00 20.00    -0.102 SA
HETATM    7  H20 UNL     1     -34.870   4.503   4.722  1.00 20.00     0.187 HD
ENDROOT
BRANCH   4   8
HETATM    8  C7  UNL     1     -32.996   8.016   0.944  1.00 20.00    -0.005 C 
HETATM    9  C5  UNL     1     -33.080   9.541   1.027  1.00 20.00     0.011 C 
HETATM   10  C6  UNL     1     -32.030   7.596  -0.164  1.00 20.00     0.011 C 
ENDBRANCH   4   8
TORSDOF 1
