REMARK  0 active torsions:
REMARK  status: ('A' for Active; 'I' for Inactive)
ROOT
HETATM    1  C1  UNL     1     -33.294   6.945   2.924  1.00 20.00     0.124 C 
HETATM    2  C2  UNL     1     -33.970   6.536   5.220  1.00 20.00     0.024 C 
HETATM    3  C3  UNL     1     -33.852   6.152   3.952  1.00 20.00     0.145 C 
HETATM    4  C4  UNL     1     -34.644   5.460   5.978  1.00 20.00     0.057 C 
HETATM    5  C5  UNL     1     -34.640   4.330   4.954  1.00 20.00     0.180 C 
HETATM    6  N6  UNL     1     -32.836   7.595   2.079  1.00 20.00    -0.189 NA
HETATM    7  O7  UNL     1     -34.355   4.892   3.657  1.00 20.00    -0.341 OA
ENDROOT
TORSDOF 0
