REMARK  0 active torsions:
REMARK  status: ('A' for Active; 'I' for Inactive)
ROOT
HETATM    1  C1  UNL     1     -33.978   7.049   5.641  1.00 20.00     0.005 C 
HETATM    2  C2  UNL     1     -33.968   5.538   5.422  1.00 20.00     0.033 C 
HETATM    3  C3  UNL     1     -33.752   7.851   4.363  1.00 20.00     0.033 C 
HETATM    4  C4  UNL     1     -34.386   5.101   4.005  1.00 20.00     0.052 C 
HETATM    5  C5  UNL     1     -32.995   7.080   3.266  1.00 20.00     0.052 C 
HETATM    6  C6  UNL     1     -35.893   5.344   3.787  1.00 20.00     0.040 C 
HETATM    7  C7  UNL     1     -34.145   3.580   3.883  1.00 20.00     0.040 C 
HETATM    8  C8  UNL     1     -31.524   6.852   3.667  1.00 20.00     0.040 C 
HETATM    9  C9  UNL     1     -33.007   7.931   1.980  1.00 20.00     0.040 C 
HETATM   10  N10 UNL     1     -33.666   5.814   2.937  1.00 20.00    -0.234 N 
HETATM   11  F11 UNL     1     -32.898   5.003   2.136  1.00 20.00    -0.103 F 
ENDROOT
TORSDOF 0
