REMARK  0 active torsions:
REMARK  status: ('A' for Active; 'I' for Inactive)
ROOT
HETATM    1  C1  UNL     1     -32.778   6.880   3.838  1.00 20.00     0.222 C 
HETATM    2  C2  UNL     1     -34.405   3.771   4.128  1.00 20.00     0.001 C 
HETATM    3  C3  UNL     1     -33.932   4.753   3.060  1.00 20.00     0.014 C 
HETATM    4  C4  UNL     1     -34.151   4.494   5.440  1.00 20.00     0.007 C 
HETATM    5  C5  UNL     1     -33.860   6.988   5.938  1.00 20.00     0.128 C 
HETATM    6  C6  UNL     1     -34.093   6.142   3.676  1.00 20.00     0.083 C 
HETATM    7  C7  UNL     1     -34.569   5.927   5.121  1.00 20.00     0.016 C 
HETATM    8  N8  UNL     1     -32.707   7.329   5.151  1.00 20.00    -0.360 N 
HETATM    9  O9  UNL     1     -31.951   7.059   2.957  1.00 20.00    -0.273 OA
HETATM   10  H20 UNL     1     -31.917   7.849   5.519  1.00 20.00     0.162 HD
ENDROOT
TORSDOF 0
