REMARK  2 active torsions:
REMARK  status: ('A' for Active; 'I' for Inactive)
REMARK    1  A    between atoms: C3_3  and  C7_7 
REMARK    2  A    between atoms: C3_3  and  O11_11 
ROOT
HETATM    1  C1  UNL     1     -33.639   4.754   5.332  1.00 20.00    -0.070 C 
HETATM    2  C2  UNL     1     -33.474   3.475   4.975  1.00 20.00    -0.027 C 
HETATM    3  C4  UNL     1     -34.643   5.221   6.348  1.00 20.00     0.034 C 
HETATM    4  C5  UNL     1     -34.682   6.729   6.133  1.00 20.00     0.005 C 
HETATM    5  C6  UNL     1     -33.266   7.080   5.687  1.00 20.00     0.019 C 
HETATM    6  C7  UNL     1     -32.844   5.913   4.797  1.00 20.00     0.114 C 
HETATM    7  C8  UNL     1     -34.256   2.342   5.549  1.00 20.00     0.036 C 
ENDROOT
BRANCH   6   8
HETATM    8  C3  UNL     1     -33.226   6.151   3.366  1.00 20.00     0.266 C 
HETATM    9  O10 UNL     1     -34.017   5.455   2.744  1.00 20.00    -0.265 OA
BRANCH   8  10
HETATM   10  O11 UNL     1     -32.560   7.242   2.892  1.00 20.00    -0.326 OA
HETATM   11  C9  UNL     1     -32.832   7.584   1.529  1.00 20.00     0.213 C 
ENDBRANCH   8  10
ENDBRANCH   6   8
TORSDOF 2
