REMARK  2 active torsions:
REMARK  status: ('A' for Active; 'I' for Inactive)
REMARK    1  A    between atoms: C2_2  and  O12_12 
REMARK    2  A    between atoms: C7_7  and  O12_12 
ROOT
HETATM    1  C3  UNL     1     -32.063   7.758   3.953  1.00 20.00     0.036 C 
HETATM    2  C4  UNL     1     -33.942   6.349   4.884  1.00 20.00     0.013 C 
HETATM    3  C5  UNL     1     -32.734   5.613   2.775  1.00 20.00     0.041 C 
HETATM    4  C6  UNL     1     -33.410   7.778   4.689  1.00 20.00    -0.015 C 
HETATM    5  C7  UNL     1     -32.140   7.016   2.620  1.00 20.00     0.128 C 
HETATM    6  C8  UNL     1     -34.065   5.551   3.566  1.00 20.00    -0.045 C 
HETATM    7  C9  UNL     1     -33.269   8.482   6.039  1.00 20.00     0.010 C 
HETATM    8  C10 UNL     1     -34.363   4.075   3.906  1.00 20.00     0.015 C 
HETATM    9  C11 UNL     1     -35.246   6.074   2.725  1.00 20.00     0.015 C 
ENDROOT
BRANCH   5  10
HETATM   10  O12 UNL     1     -32.908   7.763   1.683  1.00 20.00    -0.359 OA
BRANCH  10  11
HETATM   11  C2  UNL     1     -32.269   8.780   1.120  1.00 20.00     0.125 C 
HETATM   12  C1  UNL     1     -32.847   9.906   0.698  1.00 20.00     0.037 C 
ENDBRANCH  10  11
ENDBRANCH   5  10
TORSDOF 2
