REMARK  0 active torsions:
REMARK  status: ('A' for Active; 'I' for Inactive)
ROOT
HETATM    1  C1  UNL     1     -33.768   6.221   4.755  1.00 20.00    -0.013 C 
HETATM    2  C2  UNL     1     -32.854   6.721   3.924  1.00 20.00    -0.066 C 
HETATM    3  C3  UNL     1     -34.884   5.825   3.867  1.00 20.00     0.156 C 
HETATM    4  C4  UNL     1     -31.655   7.571   4.171  1.00 20.00     0.036 C 
HETATM    5  C5  UNL     1     -34.650   6.264   2.440  1.00 20.00     0.093 C 
HETATM    6  C6  UNL     1     -31.471   8.282   2.819  1.00 20.00     0.009 C 
HETATM    7  C7  UNL     1     -33.185   6.659   2.467  1.00 20.00     0.026 C 
HETATM    8  C8  UNL     1     -32.794   8.072   2.053  1.00 20.00    -0.010 C 
HETATM    9  C9  UNL     1     -33.829   6.173   6.231  1.00 20.00     0.052 C 
HETATM   10  C10 UNL     1     -32.643   8.233   0.549  1.00 20.00     0.010 C 
HETATM   11  O11 UNL     1     -35.893   5.259   4.261  1.00 20.00    -0.293 OA
ENDROOT
TORSDOF 0
