REMARK  0 active torsions:
REMARK  status: ('A' for Active; 'I' for Inactive)
ROOT
HETATM    1  C1  UNL     1     -33.340   6.604   4.287  1.00 20.00     0.223 A 
HETATM    2  C2  UNL     1     -33.609   5.865   2.959  1.00 20.00     0.096 A 
HETATM    3  C3  UNL     1     -32.485   6.771   2.377  1.00 20.00     0.093 A 
HETATM    4  C4  UNL     1     -33.339   4.373   2.972  1.00 20.00     0.022 C 
HETATM    5  C5  UNL     1     -32.886   7.766   1.308  1.00 20.00     0.033 C 
HETATM    6  N6  UNL     1     -32.411   7.399   3.692  1.00 20.00    -0.356 N 
HETATM    7  O7  UNL     1     -33.753   6.545   5.422  1.00 20.00    -0.273 OA
HETATM    8  H16 UNL     1     -31.828   8.126   4.084  1.00 20.00     0.162 HD
ENDROOT
TORSDOF 0
