REMARK  2 active torsions:
REMARK  status: ('A' for Active; 'I' for Inactive)
REMARK    1  A    between atoms: C2_2  and  O12_12 
REMARK    2  A    between atoms: C7_7  and  O12_12 
ROOT
HETATM    1  C3  UNL     1     -32.252   7.317   2.779  1.00 20.00     0.036 C 
HETATM    2  C4  UNL     1     -33.038   5.716   4.588  1.00 20.00     0.013 C 
HETATM    3  C5  UNL     1     -33.717   5.362   2.166  1.00 20.00     0.041 C 
HETATM    4  C6  UNL     1     -32.561   7.145   4.269  1.00 20.00    -0.015 C 
HETATM    5  C7  UNL     1     -33.376   6.822   1.872  1.00 20.00     0.128 C 
HETATM    6  C8  UNL     1     -34.099   5.105   3.638  1.00 20.00    -0.045 C 
HETATM    7  C9  UNL     1     -33.501   8.234   4.786  1.00 20.00     0.010 C 
HETATM    8  C10 UNL     1     -35.510   5.645   3.933  1.00 20.00     0.015 C 
HETATM    9  C11 UNL     1     -34.142   3.579   3.878  1.00 20.00     0.015 C 
ENDROOT
BRANCH   5  10
HETATM   10  O12 UNL     1     -32.957   6.916   0.512  1.00 20.00    -0.359 OA
BRANCH  10  11
HETATM   11  C2  UNL     1     -33.044   8.128  -0.018  1.00 20.00     0.125 C 
HETATM   12  C1  UNL     1     -32.249   8.602  -0.980  1.00 20.00     0.037 C 
ENDBRANCH  10  11
ENDBRANCH   5  10
TORSDOF 2
