REMARK  0 active torsions:
REMARK  status: ('A' for Active; 'I' for Inactive)
ROOT
HETATM    1  C1  UNL     1     -34.387   4.791   6.110  1.00 20.00    -0.030 C 
HETATM    2  C2  UNL     1     -34.989   4.703   4.917  1.00 20.00    -0.023 C 
HETATM    3  C3  UNL     1     -33.130   6.916   3.676  1.00 20.00     0.150 C 
HETATM    4  C4  UNL     1     -33.691   6.018   6.613  1.00 20.00     0.027 C 
HETATM    5  C5  UNL     1     -34.251   7.303   6.009  1.00 20.00     0.016 C 
HETATM    6  C6  UNL     1     -34.964   5.840   3.953  1.00 20.00     0.045 C 
HETATM    7  C7  UNL     1     -34.403   7.194   4.500  1.00 20.00     0.067 C 
HETATM    8  C8  UNL     1     -33.826   5.797   2.872  1.00 20.00     0.160 C 
HETATM    9  O9  UNL     1     -32.016   7.398   3.664  1.00 20.00    -0.296 OA
HETATM   10 CL10 UNL     1     -32.830   4.337   2.624  1.00 20.00    -0.116 Cl
ENDROOT
TORSDOF 0
