REMARK  0 active torsions:
REMARK  status: ('A' for Active; 'I' for Inactive)
ROOT
HETATM    1  C1  UNL     1     -33.229   4.432   2.808  1.00 20.00     0.026 C 
HETATM    2  C2  UNL     1     -34.482   5.159   4.907  1.00 20.00     0.026 C 
HETATM    3  C3  UNL     1     -33.328   5.803   2.149  1.00 20.00     0.075 C 
HETATM    4  C4  UNL     1     -34.682   6.589   4.418  1.00 20.00     0.075 C 
HETATM    5  C5  UNL     1     -34.388   4.155   3.762  1.00 20.00     0.059 C 
HETATM    6  S6  UNL     1     -33.306   7.144   3.372  1.00 20.00    -0.169 SA
HETATM    7 BR7  UNL     1     -34.163   2.359   4.518  1.00 20.00    -0.091 Br
ENDROOT
TORSDOF 0
