REMARK  0 active torsions:
REMARK  status: ('A' for Active; 'I' for Inactive)
ROOT
HETATM    1  C1  UNL     1     -32.965   6.846   4.192  1.00 20.00     0.223 A 
HETATM    2  C2  UNL     1     -34.403   6.290   4.135  1.00 20.00     0.096 A 
HETATM    3  C3  UNL     1     -34.257   6.116   5.680  1.00 20.00     0.093 A 
HETATM    4  C4  UNL     1     -34.595   5.071   3.253  1.00 20.00     0.022 C 
HETATM    5  C5  UNL     1     -34.207   4.733   6.296  1.00 20.00     0.033 C 
HETATM    6  N6  UNL     1     -32.917   6.677   5.540  1.00 20.00    -0.356 N 
HETATM    7  O7  UNL     1     -32.157   7.269   3.397  1.00 20.00    -0.273 OA
HETATM    8  H16 UNL     1     -32.173   6.873   6.195  1.00 20.00     0.162 HD
ENDROOT
TORSDOF 0
