REMARK  0 active torsions:
REMARK  status: ('A' for Active; 'I' for Inactive)
ROOT
HETATM    1  C1  UNL     1     -33.612   5.757   3.293  1.00 20.00     0.102 C 
HETATM    2  C2  UNL     1     -34.366   4.251   5.095  1.00 20.00     0.068 C 
HETATM    3  C3  UNL     1     -35.791   6.191   4.365  1.00 20.00     0.068 C 
HETATM    4  C4  UNL     1     -34.372   5.672   4.548  1.00 20.00     0.183 C 
HETATM    5  N5  UNL     1     -33.011   5.825   2.303  1.00 20.00    -0.194 NA
HETATM    6  F6  UNL     1     -33.750   6.472   5.461  1.00 20.00    -0.228 F 
ENDROOT
TORSDOF 0
