REMARK  0 active torsions:
REMARK  status: ('A' for Active; 'I' for Inactive)
ROOT
HETATM    1  C1  UNL     1     -33.247   6.597   3.260  1.00 20.00     0.223 A 
HETATM    2  C2  UNL     1     -34.314   6.866   4.342  1.00 20.00     0.096 A 
HETATM    3  C3  UNL     1     -34.687   5.361   4.162  1.00 20.00     0.093 A 
HETATM    4  C4  UNL     1     -33.779   7.358   5.673  1.00 20.00     0.022 C 
HETATM    5  C5  UNL     1     -34.436   4.368   5.279  1.00 20.00     0.033 C 
HETATM    6  N6  UNL     1     -33.632   5.298   3.155  1.00 20.00    -0.356 N 
HETATM    7  O7  UNL     1     -32.389   7.238   2.697  1.00 20.00    -0.273 OA
HETATM    8  H16 UNL     1     -33.276   4.557   2.567  1.00 20.00     0.162 HD
ENDROOT
TORSDOF 0
