REMARK  1 active torsions:
REMARK  status: ('A' for Active; 'I' for Inactive)
REMARK    1  A    between atoms: C7_7  and  C11_11 
ROOT
HETATM    1  C1  UNL     1     -32.921   8.235   0.288  1.00 20.00     0.063 C 
HETATM    2  C11 UNL     1     -31.995   7.372   1.034  1.00 20.00     0.162 C 
HETATM    3  N12 UNL     1     -33.651   8.917  -0.303  1.00 20.00    -0.197 NA
ENDROOT
BRANCH   2   4
HETATM    4  C7  UNL     1     -32.717   6.639   2.116  1.00 20.00    -0.045 A 
HETATM    5  C3  UNL     1     -33.289   5.386   1.843  1.00 20.00     0.009 A 
HETATM    6  C2  UNL     1     -33.975   4.685   2.837  1.00 20.00     0.008 A 
HETATM    7  C5  UNL     1     -34.064   5.252   4.097  1.00 20.00    -0.052 A 
HETATM    8  C6  UNL     1     -33.495   6.502   4.369  1.00 20.00    -0.051 A 
HETATM    9  C8  UNL     1     -34.772   4.716   5.301  1.00 20.00     0.039 C 
HETATM   10  C4  UNL     1     -32.823   7.209   3.386  1.00 20.00     0.015 A 
HETATM   11  C9  UNL     1     -33.770   6.918   5.779  1.00 20.00     0.039 C 
HETATM   12  C10 UNL     1     -34.154   5.573   6.416  1.00 20.00     0.009 C 
ENDBRANCH   2   4
TORSDOF 1
