REMARK  1 active torsions:
REMARK  status: ('A' for Active; 'I' for Inactive)
REMARK    1  A    between atoms: C1_1  and  C3_3 
ROOT
HETATM    1  C2  UNL     1     -34.975   6.563   3.305  1.00 20.00     0.084 A 
HETATM    2  C3  UNL     1     -33.512   6.180   3.207  1.00 20.00     0.087 A 
HETATM    3  C4  UNL     1     -34.240   6.143   4.545  1.00 20.00     0.195 A 
HETATM    4  C5  UNL     1     -33.187   4.892   2.491  1.00 20.00     0.029 C 
HETATM    5  F7  UNL     1     -33.939   7.172   5.435  1.00 20.00    -0.224 F 
HETATM    6 CL9  UNL     1     -34.671   4.620   5.300  1.00 20.00    -0.081 Cl
ENDROOT
BRANCH   2   7
HETATM    7  C1  UNL     1     -32.541   7.286   3.026  1.00 20.00     0.231 C 
HETATM    8  O6  UNL     1     -31.646   7.498   3.839  1.00 20.00    -0.279 OA
HETATM    9 CL8  UNL     1     -32.840   8.187   1.571  1.00 20.00    -0.043 Cl
ENDBRANCH   2   7
TORSDOF 1
