REMARK  0 active torsions:
REMARK  status: ('A' for Active; 'I' for Inactive)
ROOT
HETATM    1  C1  UNL     1     -32.457   8.154   0.908  1.00 20.00     0.015 C 
HETATM    2  C2  UNL     1     -32.514   7.383   1.826  1.00 20.00    -0.083 C 
HETATM    3  C3  UNL     1     -32.845   7.126   4.265  1.00 20.00     0.216 C 
HETATM    4  C4  UNL     1     -32.585   6.444   2.943  1.00 20.00     0.226 C 
HETATM    5  C5  UNL     1     -34.112   5.250   4.138  1.00 20.00     0.158 C 
HETATM    6  C6  UNL     1     -35.613   5.483   4.266  1.00 20.00     0.078 C 
HETATM    7  C7  UNL     1     -33.749   3.801   4.435  1.00 20.00     0.078 C 
HETATM    8  O8  UNL     1     -33.419   6.096   5.068  1.00 20.00    -0.352 OA
HETATM    9  O9  UNL     1     -33.711   5.572   2.797  1.00 20.00    -0.336 OA
ENDROOT
TORSDOF 0
