REMARK  0 active torsions:
REMARK  status: ('A' for Active; 'I' for Inactive)
ROOT
HETATM    1  C1  UNL     1     -32.920   8.629   0.890  1.00 20.00     0.015 C 
HETATM    2  C2  UNL     1     -32.958   7.787   1.745  1.00 20.00    -0.083 C 
HETATM    3  C3  UNL     1     -33.345   5.396   2.248  1.00 20.00     0.216 C 
HETATM    4  C4  UNL     1     -33.003   6.764   2.787  1.00 20.00     0.226 C 
HETATM    5  C5  UNL     1     -34.492   5.739   4.173  1.00 20.00     0.158 C 
HETATM    6  C6  UNL     1     -36.007   5.647   4.035  1.00 20.00     0.078 C 
HETATM    7  C7  UNL     1     -34.056   5.561   5.621  1.00 20.00     0.078 C 
HETATM    8  O8  UNL     1     -33.879   4.712   3.381  1.00 20.00    -0.352 OA
HETATM    9  O9  UNL     1     -34.068   7.030   3.707  1.00 20.00    -0.336 OA
ENDROOT
TORSDOF 0
