REMARK  1 active torsions:
REMARK  status: ('A' for Active; 'I' for Inactive)
REMARK    1  A    between atoms: C1_1  and  C7_7 
ROOT
HETATM    1  C2  UNL     1     -33.960   3.862   3.557  1.00 20.00     0.006 C 
HETATM    2  C3  UNL     1     -35.014   4.807   4.142  1.00 20.00     0.017 C 
HETATM    3  C4  UNL     1     -32.692   4.693   3.412  1.00 20.00     0.069 C 
HETATM    4  C5  UNL     1     -32.305   7.970   2.260  1.00 20.00     0.197 C 
HETATM    5  C6  UNL     1     -32.733   7.065   1.138  1.00 20.00     0.197 C 
HETATM    6  C7  UNL     1     -34.429   6.223   4.058  1.00 20.00     0.109 C 
HETATM    7  C8  UNL     1     -33.217   6.095   3.130  1.00 20.00     0.173 C 
HETATM    8  O10 UNL     1     -32.215   7.083   3.373  1.00 20.00    -0.352 OA
HETATM    9  O11 UNL     1     -33.666   6.186   1.766  1.00 20.00    -0.352 OA
ENDROOT
BRANCH   6  10
HETATM   10  C1  UNL     1     -34.059   6.707   5.430  1.00 20.00     0.241 C 
HETATM   11  O9  UNL     1     -33.709   5.961   6.338  1.00 20.00    -0.306 OA
ENDBRANCH   6  10
TORSDOF 1
