REMARK  2 active torsions:
REMARK  status: ('A' for Active; 'I' for Inactive)
REMARK    1  A    between atoms: C2_2  and  C5_5 
REMARK    2  A    between atoms: C5_5  and  O6_6 
ROOT
HETATM    1  C1  UNL     1     -34.708   6.945   3.063  1.00 20.00     0.097 A 
HETATM    2  C2  UNL     1     -33.974   5.638   3.313  1.00 20.00     0.049 A 
HETATM    3  C3  UNL     1     -33.686   6.850   4.136  1.00 20.00     0.254 A 
HETATM    4  C4  UNL     1     -32.945   5.204   2.307  1.00 20.00     0.024 C 
HETATM    5  F7  UNL     1     -32.491   7.524   4.017  1.00 20.00    -0.205 F 
HETATM    6  F8  UNL     1     -34.061   6.919   5.459  1.00 20.00    -0.205 F 
ENDROOT
BRANCH   2   7
HETATM    7  C5  UNL     1     -34.738   4.512   3.954  1.00 20.00     0.179 C 
BRANCH   7   8
HETATM    8  O6  UNL     1     -35.571   5.033   4.984  1.00 20.00    -0.400 OA
HETATM    9  H16 UNL     1     -36.043   4.277   5.368  1.00 20.00     0.209 HD
ENDBRANCH   7   8
ENDBRANCH   2   7
TORSDOF 2
