REMARK  2 active torsions:
REMARK  status: ('A' for Active; 'I' for Inactive)
REMARK    1  A    between atoms: C1_1  and  C3_3 
REMARK    2  A    between atoms: C2_2  and  C6_6 
ROOT
HETATM    1  C1  UNL     1     -33.118   6.544   2.465  1.00 20.00     0.046 C 
HETATM    2  C2  UNL     1     -33.123   7.855   2.193  1.00 20.00    -0.014 C 
ENDROOT
BRANCH   2   3
HETATM    3  C6  UNL     1     -32.508   8.441   0.963  1.00 20.00    -0.026 A 
HETATM    4  C4  UNL     1     -32.607   9.934   0.819  1.00 20.00     0.014 A 
HETATM    5  C5  UNL     1     -33.460   9.044  -0.032  1.00 20.00     0.014 A 
HETATM    6  C8  UNL     1     -31.285   7.741   0.467  1.00 20.00     0.019 C 
ENDBRANCH   2   3
BRANCH   1   7
HETATM    7  C3  UNL     1     -33.749   6.025   3.710  1.00 20.00     0.145 C 
HETATM    8  C7  UNL     1     -33.752   6.942   4.905  1.00 20.00     0.096 C 
HETATM    9  O9  UNL     1     -34.237   4.898   3.775  1.00 20.00    -0.294 OA
ENDBRANCH   1   7
TORSDOF 2
