REMARK  3 active torsions:
REMARK  status: ('A' for Active; 'I' for Inactive)
REMARK    1  A    between atoms: C2_2  and  C3_3 
REMARK    2  A    between atoms: C3_3  and  N8_8 
REMARK    3  A    between atoms: C7_7  and  N8_8 
ROOT
HETATM    1  C3  UNL     1     -33.072   6.639   2.965  1.00 20.00     0.102 C 
HETATM    2  S9  UNL     1     -31.950   7.431   3.937  1.00 20.00    -0.060 SA
ENDROOT
BRANCH   1   3
HETATM    3  C2  UNL     1     -33.984   5.573   3.467  1.00 20.00    -0.034 C 
HETATM    4  C1  UNL     1     -33.886   4.361   2.904  1.00 20.00     0.021 C 
HETATM    5  C4  UNL     1     -34.954   5.926   4.548  1.00 20.00     0.050 C 
ENDBRANCH   1   3
BRANCH   1   6
HETATM    6  N8  UNL     1     -33.171   6.967   1.630  1.00 20.00    -0.377 N 
HETATM    7  H22 UNL     1     -33.860   6.455   1.087  1.00 20.00     0.160 HD
BRANCH   6   8
HETATM    8  C7  UNL     1     -32.413   7.980   0.920  1.00 20.00     0.074 C 
HETATM    9  C5  UNL     1     -33.150   9.308   1.010  1.00 20.00     0.031 C 
HETATM   10  C6  UNL     1     -32.227   7.536  -0.524  1.00 20.00     0.031 C 
ENDBRANCH   6   8
ENDBRANCH   1   6
TORSDOF 3
