REMARK  1 active torsions:
REMARK  status: ('A' for Active; 'I' for Inactive)
REMARK    1  A    between atoms: C1_1  and  C9_9 
ROOT
HETATM    1  C1  UNL     1     -32.595   6.621   2.594  1.00 20.00     0.020 C 
HETATM    2  C2  UNL     1     -33.045   5.594   1.618  1.00 20.00     0.058 C 
HETATM    3  C3  UNL     1     -33.606   4.517   2.543  1.00 20.00     0.038 C 
HETATM    4  C4  UNL     1     -34.090   5.271   3.790  1.00 20.00     0.055 C 
HETATM    5  C5  UNL     1     -33.853   4.494   5.076  1.00 20.00     0.041 C 
HETATM    6  C6  UNL     1     -35.519   5.788   3.666  1.00 20.00     0.041 C 
HETATM    7  N10 UNL     1     -33.185   6.447   3.748  1.00 20.00    -0.224 N 
HETATM    8  O11 UNL     1     -33.033   7.221   4.746  1.00 20.00    -0.085 OA
ENDROOT
BRANCH   1   9
HETATM    9  C9  UNL     1     -31.707   7.769   2.310  1.00 20.00     0.025 C 
HETATM   10  C7  UNL     1     -30.330   7.293   1.834  1.00 20.00     0.016 C 
HETATM   11  C8  UNL     1     -32.325   8.715   1.274  1.00 20.00     0.016 C 
ENDBRANCH   1   9
TORSDOF 1
