REMARK  2 active torsions:
REMARK  status: ('A' for Active; 'I' for Inactive)
REMARK    1  A    between atoms: C1_1  and  C3_3 
REMARK    2  A    between atoms: C2_2  and  N9_9 
ROOT
HETATM    1  C1  UNL     1     -33.409   7.655   3.216  1.00 20.00     0.050 C 
HETATM    2  C2  UNL     1     -32.777   7.128   2.152  1.00 20.00     0.002 C 
HETATM    3  C4  UNL     1     -32.527   5.642   2.108  1.00 20.00     0.068 C 
ENDROOT
BRANCH   1   4
HETATM    4  C3  UNL     1     -33.882   6.834   4.370  1.00 20.00     0.026 C 
HETATM    5  C5  UNL     1     -33.291   7.195   5.714  1.00 20.00     0.070 C 
HETATM    6  N8  UNL     1     -34.763   5.905   4.195  1.00 20.00    -0.299 NA
HETATM    7  C6  UNL     1     -35.207   5.138   5.349  1.00 20.00     0.177 C 
ENDBRANCH   1   4
BRANCH   2   8
HETATM    8  N9  UNL     1     -32.330   7.820   1.061  1.00 20.00    -0.398 N 
HETATM    9  C7  UNL     1     -33.002   9.011   0.627  1.00 20.00     0.146 C 
HETATM   10  H23 UNL     1     -31.531   7.456   0.600  1.00 20.00     0.158 HD
ENDBRANCH   2   8
TORSDOF 2
