REMARK  1 active torsions:
REMARK  status: ('A' for Active; 'I' for Inactive)
REMARK    1  A    between atoms: C3_3  and  C7_7 
REMARK       I    between atoms: C3_3  and  N8_8 
ROOT
HETATM    1  C1  UNL     1     -34.515   5.492   6.294  1.00 20.00    -0.010 A 
HETATM    2  C2  UNL     1     -33.930   6.677   6.493  1.00 20.00    -0.010 A 
HETATM    3  C3  UNL     1     -33.384   6.193   2.907  1.00 20.00     0.219 C 
HETATM    4  C4  UNL     1     -34.418   5.073   4.869  1.00 20.00     0.153 A 
HETATM    5  C5  UNL     1     -33.359   7.220   5.229  1.00 20.00     0.153 A 
HETATM    6  N8  UNL     1     -33.693   6.180   4.257  1.00 20.00    -0.345 N 
HETATM    7  O9  UNL     1     -33.687   5.292   2.122  1.00 20.00    -0.273 OA
ENDROOT
BRANCH   3   8
HETATM    8  C7  UNL     1     -32.632   7.407   2.424  1.00 20.00     0.098 C 
HETATM    9  C6  UNL     1     -32.331   7.275   0.951  1.00 20.00     0.014 C 
ENDBRANCH   3   8
TORSDOF 1
