REMARK  0 active torsions:
REMARK  status: ('A' for Active; 'I' for Inactive)
ROOT
HETATM    1  C1  UNL     1     -33.709   6.673   5.157  1.00 20.00     0.282 C 
HETATM    2  C2  UNL     1     -34.743   5.133   3.585  1.00 20.00     0.286 C 
HETATM    3  C3  UNL     1     -32.599   7.130   4.214  1.00 20.00     0.104 C 
HETATM    4  C4  UNL     1     -33.774   5.388   2.420  1.00 20.00     0.071 C 
HETATM    5  C5  UNL     1     -32.630   4.377   2.368  1.00 20.00     0.023 C 
HETATM    6  C6  UNL     1     -35.065   4.853   5.953  1.00 20.00     0.310 C 
HETATM    7  N7  UNL     1     -34.127   5.284   4.913  1.00 20.00     0.086 N 
HETATM    8  S8  UNL     1     -33.125   7.093   2.478  1.00 20.00    -0.161 SA
ENDROOT
TORSDOF 0
