REMARK  3 active torsions:
REMARK  status: ('A' for Active; 'I' for Inactive)
REMARK    1  A    between atoms: C1_1  and  C4_4 
REMARK    2  A    between atoms: C2_2  and  C5_5 
REMARK    3  A    between atoms: C2_2  and  O9_9 
ROOT
HETATM    1  C3  UNL     1     -34.365   7.391   5.430  1.00 20.00     0.028 A 
HETATM    2  C4  UNL     1     -33.955   5.946   5.514  1.00 20.00     0.061 A 
HETATM    3  C5  UNL     1     -33.146   6.916   4.688  1.00 20.00     0.097 A 
ENDROOT
BRANCH   3   4
HETATM    4  C2  UNL     1     -33.175   6.860   3.221  1.00 20.00     0.263 C 
HETATM    5  O8  UNL     1     -33.427   5.850   2.579  1.00 20.00    -0.265 OA
BRANCH   4   6
HETATM    6  O9  UNL     1     -32.882   8.091   2.712  1.00 20.00    -0.326 OA
HETATM    7  C6  UNL     1     -32.875   8.179   1.283  1.00 20.00     0.213 C 
ENDBRANCH   4   6
ENDBRANCH   3   4
BRANCH   2   8
HETATM    8  C1  UNL     1     -34.790   4.924   4.870  1.00 20.00     0.236 C 
HETATM    9  O7  UNL     1     -34.366   3.829   4.516  1.00 20.00    -0.306 OA
ENDBRANCH   2   8
TORSDOF 3
