REMARK  0 active torsions:
REMARK  status: ('A' for Active; 'I' for Inactive)
ROOT
HETATM    1  C1  UNL     1     -34.368   4.531   5.174  1.00 20.00     0.282 C 
HETATM    2  C2  UNL     1     -33.577   6.773   4.644  1.00 20.00     0.286 C 
HETATM    3  C3  UNL     1     -34.418   4.045   3.729  1.00 20.00     0.104 C 
HETATM    4  C4  UNL     1     -33.526   6.565   3.124  1.00 20.00     0.071 C 
HETATM    5  C5  UNL     1     -32.472   7.466   2.486  1.00 20.00     0.023 C 
HETATM    6  C6  UNL     1     -34.739   6.346   6.707  1.00 20.00     0.310 C 
HETATM    7  N7  UNL     1     -34.627   5.973   5.294  1.00 20.00     0.086 N 
HETATM    8  S8  UNL     1     -33.136   4.830   2.717  1.00 20.00    -0.161 SA
ENDROOT
TORSDOF 0
