REMARK  0 active torsions:
REMARK  status: ('A' for Active; 'I' for Inactive)
ROOT
HETATM    1  C1  UNL     1     -33.196   7.125   3.273  1.00 20.00     0.280 C 
HETATM    2  C2  UNL     1     -32.326   6.168   2.468  1.00 20.00     0.104 C 
HETATM    3  C3  UNL     1     -33.424   4.252   4.080  1.00 20.00     0.114 C 
HETATM    4  C4  UNL     1     -34.160   5.415   4.780  1.00 20.00     0.159 C 
HETATM    5  C5  UNL     1     -34.215   5.101   6.291  1.00 20.00     0.049 C 
HETATM    6  C6  UNL     1     -35.614   5.556   4.286  1.00 20.00     0.049 C 
HETATM    7  N7  UNL     1     -33.425   6.687   4.650  1.00 20.00     0.093 N 
HETATM    8  S8  UNL     1     -33.106   4.540   2.313  1.00 20.00    -0.165 SA
HETATM    9  H21 UNL     1     -32.529   6.611   5.126  1.00 20.00     0.316 HD
ENDROOT
TORSDOF 0
