REMARK  3 active torsions:
REMARK  status: ('A' for Active; 'I' for Inactive)
REMARK    1  A    between atoms: C2_2  and  N9_9 
REMARK    2  A    between atoms: C3_3  and  C8_8 
REMARK    3  A    between atoms: C7_7  and  C8_8 
ROOT
HETATM    1  C3  UNL     1     -33.529   5.808   2.342  1.00 20.00     0.099 C 
HETATM    2  N9  UNL     1     -33.147   7.027   2.141  1.00 20.00    -0.277 NA
ENDROOT
BRANCH   1   3
HETATM    3  C8  UNL     1     -34.187   5.371   3.649  1.00 20.00    -0.001 C 
HETATM    4  C5  UNL     1     -35.701   5.570   3.466  1.00 20.00     0.021 C 
HETATM    5  C6  UNL     1     -33.919   3.893   3.972  1.00 20.00     0.021 C 
BRANCH   3   6
HETATM    6  C7  UNL     1     -33.703   6.299   4.782  1.00 20.00     0.129 C 
HETATM    7 CL10 UNL     1     -34.398   5.889   6.374  1.00 20.00    -0.129 Cl
ENDBRANCH   3   6
ENDBRANCH   1   3
BRANCH   2   8
HETATM    8  C2  UNL     1     -32.577   7.266   0.928  1.00 20.00     0.111 C 
HETATM    9  C1  UNL     1     -32.647   8.448   0.303  1.00 20.00    -0.012 C 
HETATM   10  C4  UNL     1     -33.355   9.640   0.857  1.00 20.00     0.037 C 
ENDBRANCH   2   8
TORSDOF 3
