REMARK  3 active torsions:
REMARK  status: ('A' for Active; 'I' for Inactive)
REMARK    1  A    between atoms: C4_4  and  C10_10 
REMARK    2  A    between atoms: C8_8  and  C10_10 
REMARK    3  A    between atoms: C8_8  and  O11_11 
ROOT
HETATM    1  C1  UNL     1     -35.208   5.701   6.003  1.00 20.00    -0.030 C 
HETATM    2  C2  UNL     1     -35.038   5.042   4.849  1.00 20.00    -0.028 C 
HETATM    3  C5  UNL     1     -34.348   6.853   6.424  1.00 20.00     0.030 C 
HETATM    4  C6  UNL     1     -33.988   5.404   3.836  1.00 20.00     0.065 C 
HETATM    5  C7  UNL     1     -33.075   6.997   5.581  1.00 20.00     0.042 C 
HETATM    6  C8  UNL     1     -33.346   6.784   4.084  1.00 20.00     0.068 C 
ENDROOT
BRANCH   6   7
HETATM    7  C10 UNL     1     -32.056   6.933   3.274  1.00 20.00     0.038 C 
HETATM    8  C9  UNL     1     -31.395   8.280   3.562  1.00 20.00     0.017 C 
BRANCH   7   9
HETATM    9  C4  UNL     1     -32.349   6.799   1.803  1.00 20.00    -0.030 C 
HETATM   10  C3  UNL     1     -32.638   7.831   1.002  1.00 20.00     0.007 C 
ENDBRANCH   7   9
ENDBRANCH   6   7
BRANCH   6  11
HETATM   11  O11 UNL     1     -34.250   7.805   3.648  1.00 20.00    -0.389 OA
HETATM   12  H27 UNL     1     -34.396   7.650   2.704  1.00 20.00     0.210 HD
ENDBRANCH   6  11
TORSDOF 3
