REMARK  0 active torsions:
REMARK  status: ('A' for Active; 'I' for Inactive)
ROOT
HETATM    1  C1  UNL     1     -33.334   8.517   2.876  1.00 20.00     0.047 A 
HETATM    2  C2  UNL     1     -33.584   7.290   3.518  1.00 20.00     0.026 A 
HETATM    3  C3  UNL     1     -33.401   6.216   2.696  1.00 20.00    -0.001 A 
HETATM    4  C4  UNL     1     -32.965   8.305   1.558  1.00 20.00     0.075 A 
HETATM    5  C5  UNL     1     -33.991   6.828   4.819  1.00 20.00     0.175 A 
HETATM    6  C6  UNL     1     -33.635   4.892   3.328  1.00 20.00     0.071 A 
HETATM    7  C7  UNL     1     -34.098   5.296   4.760  1.00 20.00     0.137 A 
HETATM    8  O8  UNL     1     -34.226   7.538   5.784  1.00 20.00    -0.291 OA
HETATM    9  S9  UNL     1     -32.930   6.624   1.141  1.00 20.00    -0.082 SA
HETATM   10 CL10 UNL     1     -32.563   9.481   0.377  1.00 20.00    -0.076 Cl
HETATM   11 BR11 UNL     1     -35.972   4.872   5.032  1.00 20.00    -0.082 Br
ENDROOT
TORSDOF 0
