REMARK  0 active torsions:
REMARK  status: ('A' for Active; 'I' for Inactive)
ROOT
HETATM    1  C1  UNL     1     -33.594   6.049   2.560  1.00 20.00     0.047 A 
HETATM    2  C2  UNL     1     -33.816   5.868   3.937  1.00 20.00     0.025 A 
HETATM    3  C3  UNL     1     -33.343   6.904   4.690  1.00 20.00    -0.002 A 
HETATM    4  C4  UNL     1     -32.943   7.251   2.330  1.00 20.00     0.075 A 
HETATM    5  C5  UNL     1     -34.409   4.887   4.805  1.00 20.00     0.161 A 
HETATM    6  C6  UNL     1     -33.551   6.764   6.150  1.00 20.00     0.055 A 
HETATM    7  C7  UNL     1     -34.280   5.386   6.253  1.00 20.00     0.089 A 
HETATM    8  O8  UNL     1     -34.926   3.839   4.452  1.00 20.00    -0.292 OA
HETATM    9  S9  UNL     1     -32.622   8.120   3.793  1.00 20.00    -0.082 SA
HETATM   10 CL10 UNL     1     -32.457   7.911   0.824  1.00 20.00    -0.076 Cl
ENDROOT
TORSDOF 0
