REMARK  2 active torsions:
REMARK  status: ('A' for Active; 'I' for Inactive)
REMARK    1  A    between atoms: C5_5  and  C8_8 
REMARK    2  A    between atoms: C6_6  and  N9_9 
ROOT
HETATM    1  C1  UNL     1     -31.797   7.264   3.245  1.00 20.00     0.006 C 
HETATM    2  C2  UNL     1     -32.919   6.037   1.338  1.00 20.00     0.006 C 
HETATM    3  C3  UNL     1     -32.963   6.905   4.163  1.00 20.00     0.024 C 
HETATM    4  C4  UNL     1     -34.087   5.677   2.255  1.00 20.00     0.024 C 
HETATM    5  C5  UNL     1     -32.194   7.324   1.762  1.00 20.00    -0.015 C 
HETATM    6  C6  UNL     1     -33.650   5.615   3.718  1.00 20.00     0.109 C 
ENDROOT
BRANCH   5   7
HETATM    7  C8  UNL     1     -33.028   8.570   1.452  1.00 20.00     0.000 C 
HETATM    8  C7  UNL     1     -33.367   8.659   0.000  1.00 20.00     0.005 C 
ENDBRANCH   5   7
BRANCH   6   9
HETATM    9  N9  UNL     1     -34.826   5.377   4.562  1.00 20.00    -0.059 NA
HETATM   10  O10 UNL     1     -34.729   4.318   5.179  1.00 20.00    -0.101 OA
ENDBRANCH   6   9
TORSDOF 2
