REMARK  1 active torsions:
REMARK  status: ('A' for Active; 'I' for Inactive)
REMARK    1  A    between atoms: C1_1  and  C8_8 
ROOT
HETATM    1  C2  UNL     1     -34.309   5.133   6.559  1.00 20.00     0.000 C 
HETATM    2  C3  UNL     1     -35.240   4.825   5.392  1.00 20.00     0.001 C 
HETATM    3  C4  UNL     1     -33.802   6.569   6.488  1.00 20.00     0.006 C 
HETATM    4  C5  UNL     1     -34.488   4.884   4.064  1.00 20.00     0.019 C 
HETATM    5  C6  UNL     1     -34.205   7.474   4.096  1.00 20.00     0.025 A 
HETATM    6  C7  UNL     1     -33.263   6.926   5.135  1.00 20.00     0.004 A 
HETATM    7  C8  UNL     1     -33.597   6.101   3.900  1.00 20.00     0.040 A 
ENDROOT
BRANCH   7   8
HETATM    8  C1  UNL     1     -32.543   6.003   2.861  1.00 20.00     0.228 C 
HETATM    9  O9  UNL     1     -31.766   6.927   2.642  1.00 20.00    -0.279 OA
HETATM   10 CL10 UNL     1     -32.570   4.470   2.045  1.00 20.00    -0.043 Cl
ENDBRANCH   7   8
TORSDOF 1
