REMARK  1 active torsions:
REMARK  status: ('A' for Active; 'I' for Inactive)
REMARK    1  A    between atoms: C2_2  and  C6_6 
ROOT
HETATM    1  C1  UNL     1     -33.688   4.895   3.319  1.00 20.00     0.134 A 
HETATM    2  C2  UNL     1     -34.094   5.877   4.198  1.00 20.00     0.006 A 
HETATM    3  C3  UNL     1     -33.141   6.652   2.126  1.00 20.00     0.167 A 
HETATM    4  N7  UNL     1     -33.141   5.337   2.130  1.00 20.00    -0.240 NA
HETATM    5  S8  UNL     1     -33.782   7.421   3.519  1.00 20.00    -0.061 SA
HETATM    6 CL9  UNL     1     -32.542   7.587   0.821  1.00 20.00    -0.054 Cl
ENDROOT
BRANCH   2   7
HETATM    7  C6  UNL     1     -34.726   5.751   5.571  1.00 20.00     0.019 C 
HETATM    8  C4  UNL     1     -34.405   6.962   6.451  1.00 20.00     0.015 C 
HETATM    9  C5  UNL     1     -34.315   4.450   6.264  1.00 20.00     0.015 C 
ENDBRANCH   2   7
TORSDOF 1
