REMARK  2 active torsions:
REMARK  status: ('A' for Active; 'I' for Inactive)
REMARK    1  A    between atoms: C2_2  and  C6_6 
REMARK    2  A    between atoms: C3_3  and  C7_7 
ROOT
HETATM    1  C1  UNL     1     -33.645   5.788   1.962  1.00 20.00     0.133 A 
HETATM    2  C2  UNL     1     -32.774   6.857   2.012  1.00 20.00     0.016 A 
HETATM    3  C3  UNL     1     -33.521   6.010   4.140  1.00 20.00     0.078 A 
HETATM    4  N8  UNL     1     -34.074   5.301   3.181  1.00 20.00    -0.257 NA
HETATM    5  S9  UNL     1     -32.475   7.279   3.647  1.00 20.00    -0.076 SA
ENDROOT
BRANCH   3   6
HETATM    6  C7  UNL     1     -33.750   5.777   5.622  1.00 20.00     0.037 C 
HETATM    7  C4  UNL     1     -34.664   4.573   5.867  1.00 20.00     0.016 C 
HETATM    8  C5  UNL     1     -34.300   7.028   6.310  1.00 20.00     0.016 C 
ENDBRANCH   3   6
BRANCH   2   9
HETATM    9  C6  UNL     1     -32.133   7.607   0.914  1.00 20.00     0.162 C 
HETATM   10 CL10 UNL     1     -33.294   8.701   0.118  1.00 20.00    -0.125 Cl
ENDBRANCH   2   9
TORSDOF 2
