REMARK  4 active torsions:
REMARK  status: ('A' for Active; 'I' for Inactive)
REMARK    1  A    between atoms: C1_1  and  C7_7 
REMARK    2  A    between atoms: C1_1  and  O11_11 
REMARK    3  A    between atoms: C7_7  and  C8_8 
REMARK    4  A    between atoms: C8_8  and  C9_9 
ROOT
HETATM    1  C2  UNL     1     -33.683   7.941   4.182  1.00 20.00     0.011 C 
HETATM    2  C8  UNL     1     -33.280   6.464   4.014  1.00 20.00    -0.002 C 
ENDROOT
BRANCH   2   3
HETATM    3  C7  UNL     1     -32.913   6.210   2.533  1.00 20.00     0.116 C 
BRANCH   3   4
HETATM    4  C1  UNL     1     -32.233   7.396   1.877  1.00 20.00     0.258 C 
HETATM    5  O10 UNL     1     -31.023   7.569   1.819  1.00 20.00    -0.265 OA
BRANCH   4   6
HETATM    6  O11 UNL     1     -33.185   8.210   1.332  1.00 20.00    -0.326 OA
HETATM    7  C6  UNL     1     -32.689   9.360   0.639  1.00 20.00     0.213 C 
ENDBRANCH   4   6
ENDBRANCH   3   4
ENDBRANCH   2   3
BRANCH   2   8
HETATM    8  C9  UNL     1     -34.360   5.459   4.570  1.00 20.00    -0.048 C 
HETATM    9  C3  UNL     1     -34.180   5.179   6.074  1.00 20.00     0.015 C 
HETATM   10  C4  UNL     1     -34.291   4.113   3.815  1.00 20.00     0.015 C 
HETATM   11  C5  UNL     1     -35.780   6.028   4.349  1.00 20.00     0.015 C 
ENDBRANCH   2   8
TORSDOF 4
