REMARK  2 active torsions:
REMARK  status: ('A' for Active; 'I' for Inactive)
REMARK    1  A    between atoms: C2_2  and  C5_5 
REMARK    2  A    between atoms: C9_9  and  N10_10 
ROOT
HETATM    1  C3  UNL     1     -32.592   4.919   2.742  1.00 20.00     0.070 C 
HETATM    2  C4  UNL     1     -34.122   5.038   2.733  1.00 20.00     0.277 C 
HETATM    3  C5  UNL     1     -32.583   6.261   3.498  1.00 20.00     0.247 C 
HETATM    4  N10 UNL     1     -34.040   6.128   3.728  1.00 20.00     0.105 N 
ENDROOT
BRANCH   4   5
HETATM    5  C9  UNL     1     -34.299   5.606   5.072  1.00 20.00     0.150 C 
HETATM    6  C6  UNL     1     -33.255   4.536   5.410  1.00 20.00     0.048 C 
HETATM    7  C7  UNL     1     -34.208   6.756   6.081  1.00 20.00     0.048 C 
HETATM    8  C8  UNL     1     -35.701   4.988   5.114  1.00 20.00     0.048 C 
ENDBRANCH   4   5
BRANCH   3   9
HETATM    9  C2  UNL     1     -32.288   7.460   2.681  1.00 20.00    -0.002 C 
HETATM   10  C1  UNL     1     -32.899   7.747   1.527  1.00 20.00     0.009 C 
ENDBRANCH   3   9
TORSDOF 2
