REMARK  1 active torsions:
REMARK  status: ('A' for Active; 'I' for Inactive)
REMARK    1  A    between atoms: C5_5  and  O10_10 
ROOT
HETATM    1  C1  UNL     1     -34.528   4.987   3.974  1.00 20.00     0.050 A 
HETATM    2  C2  UNL     1     -33.457   6.516   5.535  1.00 20.00     0.079 A 
HETATM    3  C3  UNL     1     -33.833   5.604   2.948  1.00 20.00    -0.046 A 
HETATM    4  C4  UNL     1     -32.961   6.670   3.205  1.00 20.00    -0.018 A 
HETATM    5  C5  UNL     1     -32.769   7.141   4.492  1.00 20.00     0.075 A 
HETATM    6  C6  UNL     1     -34.330   5.448   5.278  1.00 20.00     0.119 A 
HETATM    7  C7  UNL     1     -33.907   5.318   1.482  1.00 20.00     0.039 C 
HETATM    8  C8  UNL     1     -32.372   7.194   1.934  1.00 20.00     0.042 C 
HETATM    9  C9  UNL     1     -32.638   6.022   0.977  1.00 20.00     0.009 C 
HETATM   10  F11 UNL     1     -34.986   4.869   6.293  1.00 20.00    -0.206 F 
ENDROOT
BRANCH   5  11
HETATM   11  O10 UNL     1     -31.937   8.183   4.746  1.00 20.00    -0.360 OA
HETATM   12  H20 UNL     1     -31.922   8.383   5.697  1.00 20.00     0.217 HD
ENDBRANCH   5  11
TORSDOF 1
