REMARK  2 active torsions:
REMARK  status: ('A' for Active; 'I' for Inactive)
REMARK    1  A    between atoms: C4_4  and  C7_7 
REMARK    2  A    between atoms: C5_5  and  O8_8 
ROOT
HETATM    1  C1  UNL     1     -34.740   4.651   5.580  1.00 20.00     0.007 C 
HETATM    2  C2  UNL     1     -33.800   5.671   6.213  1.00 20.00     0.032 C 
HETATM    3  C3  UNL     1     -34.787   6.561   4.149  1.00 20.00     0.036 C 
HETATM    4  C4  UNL     1     -34.780   5.030   4.101  1.00 20.00    -0.012 C 
HETATM    5  C5  UNL     1     -33.938   6.938   5.365  1.00 20.00     0.118 C 
ENDROOT
BRANCH   4   6
HETATM    6  C7  UNL     1     -33.585   4.479   3.326  1.00 20.00     0.000 C 
HETATM    7  C6  UNL     1     -33.603   4.907   1.892  1.00 20.00     0.005 C 
ENDBRANCH   4   6
BRANCH   5   8
HETATM    8  O8  UNL     1     -32.658   7.381   4.935  1.00 20.00    -0.396 OA
HETATM    9  H22 UNL     1     -32.144   7.562   5.737  1.00 20.00     0.210 HD
ENDBRANCH   5   8
TORSDOF 2
