REMARK  0 active torsions:
REMARK  status: ('A' for Active; 'I' for Inactive)
ROOT
HETATM    1  C1  UNL     1     -34.005   6.323   6.298  1.00 20.00     0.097 A 
HETATM    2  C2  UNL     1     -34.522   4.373   5.108  1.00 20.00     0.097 A 
HETATM    3  C3  UNL     1     -33.482   6.926   5.154  1.00 20.00    -0.016 A 
HETATM    4  C4  UNL     1     -34.016   4.914   3.928  1.00 20.00    -0.016 A 
HETATM    5  C5  UNL     1     -33.505   6.227   3.930  1.00 20.00     0.045 A 
HETATM    6  C6  UNL     1     -32.951   8.331   5.236  1.00 20.00     0.044 C 
HETATM    7  C7  UNL     1     -34.073   4.105   2.660  1.00 20.00     0.044 C 
HETATM    8  C8  UNL     1     -32.020   8.638   4.070  1.00 20.00     0.025 C 
HETATM    9  C9  UNL     1     -33.083   4.629   1.627  1.00 20.00     0.025 C 
HETATM   10  C10 UNL     1     -32.667   8.226   2.754  1.00 20.00     0.123 C 
HETATM   11  C11 UNL     1     -33.220   6.139   1.482  1.00 20.00     0.123 C 
HETATM   12  N12 UNL     1     -34.501   5.083   6.240  1.00 20.00    -0.374 N 
HETATM   13  N13 UNL     1     -33.000   6.804   2.764  1.00 20.00    -0.380 N 
HETATM   14  H28 UNL     1     -34.877   4.665   7.090  1.00 20.00     0.164 HD
ENDROOT
TORSDOF 0
