REMARK  2 active torsions:
REMARK  status: ('A' for Active; 'I' for Inactive)
REMARK    1  A    between atoms: C6_6  and  C8_8 
REMARK    2  A    between atoms: C7_7  and  C8_8 
ROOT
HETATM    1  C1  UNL     1     -34.910   5.349   6.279  1.00 20.00     0.001 A 
HETATM    2  C2  UNL     1     -34.344   6.642   6.618  1.00 20.00     0.001 A 
HETATM    3  C3  UNL     1     -34.560   5.022   5.025  1.00 20.00     0.013 A 
HETATM    4  C4  UNL     1     -33.645   7.112   5.572  1.00 20.00     0.013 A 
HETATM    5  C5  UNL     1     -33.750   6.115   4.525  1.00 20.00    -0.018 A 
HETATM    6  C7  UNL     1     -33.196   6.191   3.312  1.00 20.00     0.028 C 
HETATM    7 CL10 UNL     1     -33.464   4.927   2.156  1.00 20.00    -0.088 Cl
ENDROOT
BRANCH   6   8
HETATM    8  C8  UNL     1     -32.364   7.342   2.838  1.00 20.00     0.121 C 
BRANCH   8   9
HETATM    9  C6  UNL     1     -32.957   8.010   1.615  1.00 20.00     0.236 C 
HETATM   10  O9  UNL     1     -32.388   8.146   0.537  1.00 20.00    -0.307 OA
ENDBRANCH   8   9
ENDBRANCH   6   8
TORSDOF 2
