REMARK  4 active torsions:
REMARK  status: ('A' for Active; 'I' for Inactive)
REMARK    1  A    between atoms: C1_1  and  C7_7 
REMARK    2  A    between atoms: C1_1  and  C8_8 
REMARK    3  A    between atoms: C7_7  and  O10_10 
REMARK    4  A    between atoms: C7_7  and  O11_11 
ROOT
HETATM    1  C1  UNL     1     -33.238   6.765   4.020  1.00 20.00     0.188 C 
HETATM    2  O9  UNL     1     -33.371   7.665   4.855  1.00 20.00    -0.292 OA
ENDROOT
BRANCH   1   3
HETATM    3  C7  UNL     1     -32.168   6.879   2.938  1.00 20.00     0.330 C 
BRANCH   3   4
HETATM    4  O10 UNL     1     -32.858   7.459   1.831  1.00 20.00    -0.359 OA
HETATM    5  C5  UNL     1     -33.001   8.867   1.968  1.00 20.00     0.205 C 
ENDBRANCH   3   4
BRANCH   3   6
HETATM    6  O11 UNL     1     -31.121   7.726   3.396  1.00 20.00    -0.359 OA
HETATM    7  C6  UNL     1     -30.219   7.056   4.267  1.00 20.00     0.205 C 
ENDBRANCH   3   6
ENDBRANCH   1   3
BRANCH   1   8
HETATM    8  C8  UNL     1     -34.103   5.487   4.074  1.00 20.00     0.015 C 
HETATM    9  C2  UNL     1     -33.660   4.549   2.943  1.00 20.00     0.023 C 
HETATM   10  C3  UNL     1     -33.883   4.779   5.423  1.00 20.00     0.023 C 
HETATM   11  C4  UNL     1     -35.596   5.811   3.937  1.00 20.00     0.023 C 
ENDBRANCH   1   8
TORSDOF 4
