REMARK  0 active torsions:
REMARK  status: ('A' for Active; 'I' for Inactive)
ROOT
HETATM    1  C1  UNL     1     -34.187   7.038   4.673  1.00 20.00     0.064 C 
HETATM    2  C2  UNL     1     -33.071   6.679   3.699  1.00 20.00     0.170 C 
HETATM    3  C3  UNL     1     -33.854   4.499   3.196  1.00 20.00     0.205 C 
HETATM    4  C4  UNL     1     -34.867   5.807   5.185  1.00 20.00     0.258 A 
HETATM    5  C5  UNL     1     -34.719   4.522   4.414  1.00 20.00     0.277 A 
HETATM    6  N6  UNL     1     -35.975   5.256   4.398  1.00 20.00     0.099 N 
HETATM    7  O7  UNL     1     -33.583   5.812   2.686  1.00 20.00    -0.389 OA
HETATM    8  H16 UNL     1     -36.649   4.808   5.019  1.00 20.00     0.317 HD
ENDROOT
TORSDOF 0
