REMARK  0 active torsions:
REMARK  status: ('A' for Active; 'I' for Inactive)
ROOT
HETATM    1  C1  UNL     1     -33.299   4.839   2.219  1.00 20.00     0.136 A 
HETATM    2  C2  UNL     1     -32.766   6.124   2.320  1.00 20.00     0.136 A 
HETATM    3  C3  UNL     1     -34.875   4.652   5.397  1.00 20.00     0.083 A 
HETATM    4  C4  UNL     1     -33.926   6.942   5.576  1.00 20.00     0.083 A 
HETATM    5  C5  UNL     1     -34.180   5.022   4.272  1.00 20.00     0.092 A 
HETATM    6  C6  UNL     1     -33.632   6.343   4.376  1.00 20.00     0.092 A 
HETATM    7  N7  UNL     1     -34.029   4.225   3.184  1.00 20.00    -0.257 NA
HETATM    8  N8  UNL     1     -32.904   6.938   3.397  1.00 20.00    -0.257 NA
HETATM    9  S9  UNL     1     -34.864   5.904   6.576  1.00 20.00    -0.109 SA
ENDROOT
TORSDOF 0
