REMARK  2 active torsions:
REMARK  status: ('A' for Active; 'I' for Inactive)
REMARK    1  A    between atoms: C7_7  and  C9_9 
REMARK    2  A    between atoms: C8_8  and  C10_10 
ROOT
HETATM    1  C1  UNL     1     -34.002   3.957   4.260  1.00 20.00     0.131 C 
HETATM    2  C2  UNL     1     -33.332   4.285   5.576  1.00 20.00     0.083 C 
HETATM    3  C6  UNL     1     -35.606   4.991   5.554  1.00 20.00     0.018 C 
HETATM    4  C7  UNL     1     -35.213   4.851   4.077  1.00 20.00     0.060 C 
HETATM    5  C8  UNL     1     -34.214   5.481   5.989  1.00 20.00    -0.002 C 
HETATM    6  O11 UNL     1     -33.613   3.119   3.461  1.00 20.00    -0.298 OA
ENDROOT
BRANCH   4   7
HETATM    7  C9  UNL     1     -34.748   6.281   3.753  1.00 20.00     0.001 C 
HETATM    8  C4  UNL     1     -33.734   6.470   2.631  1.00 20.00     0.006 C 
HETATM    9  C3  UNL     1     -32.369   6.541   3.306  1.00 20.00     0.001 C 
HETATM   10  C5  UNL     1     -32.640   7.156   4.675  1.00 20.00     0.005 C 
HETATM   11  C10 UNL     1     -34.048   6.719   5.065  1.00 20.00    -0.005 C 
ENDBRANCH   4   7
TORSDOF 2
