REMARK  2 active torsions:
REMARK  status: ('A' for Active; 'I' for Inactive)
REMARK    1  A    between atoms: C1_1  and  C4_4 
REMARK    2  A    between atoms: C1_1  and  C5_5 
ROOT
HETATM    1  C2  UNL     1     -34.425   4.725   5.217  1.00 20.00     0.055 A 
HETATM    2  C3  UNL     1     -35.377   5.579   4.433  1.00 20.00     0.055 A 
HETATM    3  C4  UNL     1     -33.909   5.905   4.441  1.00 20.00     0.164 A 
HETATM    4  F7  UNL     1     -33.548   7.011   5.205  1.00 20.00    -0.235 F 
ENDROOT
BRANCH   3   5
HETATM    5  C1  UNL     1     -33.108   5.690   3.233  1.00 20.00     0.179 C 
HETATM    6  O6  UNL     1     -33.280   4.691   2.537  1.00 20.00    -0.293 OA
BRANCH   5   7
HETATM    7  C5  UNL     1     -32.085   6.759   2.925  1.00 20.00     0.196 C 
HETATM    8 CL8  UNL     1     -32.784   8.014   1.890  1.00 20.00    -0.122 Cl
ENDBRANCH   5   7
ENDBRANCH   3   5
TORSDOF 2
