REMARK  4 active torsions:
REMARK  status: ('A' for Active; 'I' for Inactive)
REMARK    1  A    between atoms: C2_2  and  C6_6 
REMARK    2  A    between atoms: C6_6  and  C8_8 
REMARK    3  A    between atoms: C7_7  and  C8_8 
REMARK    4  A    between atoms: C8_8  and  O9_9 
ROOT
HETATM    1  C1  UNL     1     -32.925   8.220   1.604  1.00 20.00    -0.111 C 
HETATM    2  C2  UNL     1     -32.936   7.340   2.421  1.00 20.00    -0.104 C 
HETATM    3  C3  UNL     1     -32.911   9.291   0.608  1.00 20.00     0.112 C 
ENDROOT
BRANCH   2   4
HETATM    4  C6  UNL     1     -32.949   6.261   3.424  1.00 20.00     0.126 C 
BRANCH   4   5
HETATM    5  C8  UNL     1     -33.913   5.135   3.023  1.00 20.00     0.132 C 
BRANCH   5   6
HETATM    6  C7  UNL     1     -34.310   4.241   4.221  1.00 20.00     0.007 C 
HETATM    7  C4  UNL     1     -35.051   5.006   5.322  1.00 20.00     0.012 C 
HETATM    8  C5  UNL     1     -33.074   3.562   4.822  1.00 20.00     0.012 C 
ENDBRANCH   5   6
BRANCH   5   9
HETATM    9  O9  UNL     1     -33.301   4.325   2.018  1.00 20.00    -0.394 OA
HETATM   10  H23 UNL     1     -33.120   4.911   1.268  1.00 20.00     0.210 HD
ENDBRANCH   5   9
ENDBRANCH   4   5
ENDBRANCH   2   4
TORSDOF 4
