REMARK  1 active torsions:
REMARK  status: ('A' for Active; 'I' for Inactive)
REMARK    1  A    between atoms: C2_2  and  C6_6 
ROOT
HETATM    1  C1  UNL     1     -33.013   7.004   4.236  1.00 20.00    -0.021 C 
HETATM    2  C2  UNL     1     -32.998   6.464   3.003  1.00 20.00    -0.061 C 
HETATM    3  C3  UNL     1     -33.912   6.587   5.363  1.00 20.00     0.037 C 
HETATM    4  C4  UNL     1     -33.867   5.317   2.557  1.00 20.00     0.108 C 
HETATM    5  C5  UNL     1     -35.110   5.737   4.956  1.00 20.00     0.078 C 
HETATM    6  S7  UNL     1     -34.582   4.352   3.916  1.00 20.00    -0.165 SA
ENDROOT
BRANCH   2   7
HETATM    7  C6  UNL     1     -32.068   6.997   1.947  1.00 20.00     0.149 C 
HETATM    8 CL8  UNL     1     -32.954   8.244   1.074  1.00 20.00    -0.126 Cl
ENDBRANCH   2   7
TORSDOF 1
