REMARK  1 active torsions:
REMARK  status: ('A' for Active; 'I' for Inactive)
REMARK    1  A    between atoms: C6_6  and  O8_8 
ROOT
HETATM    1  C1  UNL     1     -32.502   7.571   1.552  1.00 20.00     0.015 C 
HETATM    2  C2  UNL     1     -32.794   7.193   2.654  1.00 20.00    -0.077 C 
HETATM    3  C3  UNL     1     -32.845   5.259   4.192  1.00 20.00     0.080 C 
HETATM    4  C4  UNL     1     -34.075   4.583   3.621  1.00 20.00     0.171 C 
HETATM    5  C5  UNL     1     -34.656   6.758   4.233  1.00 20.00     0.219 C 
HETATM    6  C6  UNL     1     -33.153   6.730   4.003  1.00 20.00     0.143 C 
HETATM    7  O7  UNL     1     -35.174   5.483   3.819  1.00 20.00    -0.387 OA
ENDROOT
BRANCH   6   8
HETATM    8  O8  UNL     1     -32.471   7.508   4.972  1.00 20.00    -0.375 OA
HETATM    9  H16 UNL     1     -32.735   7.171   5.845  1.00 20.00     0.211 HD
ENDBRANCH   6   8
TORSDOF 1
