REMARK  3 active torsions:
REMARK  status: ('A' for Active; 'I' for Inactive)
REMARK    1  A    between atoms: C2_2  and  C6_6 
REMARK    2  A    between atoms: C3_3  and  C6_6 
REMARK    3  A    between atoms: C3_3  and  C7_7 
ROOT
HETATM    1  C3  UNL     1     -33.672   6.147   3.182  1.00 20.00     0.240 C 
HETATM    2  O8  UNL     1     -33.452   5.184   2.446  1.00 20.00    -0.287 OA
ENDROOT
BRANCH   1   3
HETATM    3  C6  UNL     1     -34.773   6.132   4.239  1.00 20.00     0.088 C 
HETATM    4  C5  UNL     1     -35.943   5.320   3.680  1.00 20.00     0.023 C 
BRANCH   3   5
HETATM    5  C2  UNL     1     -34.173   5.659   5.551  1.00 20.00    -0.082 C 
HETATM    6  C1  UNL     1     -34.162   4.381   5.965  1.00 20.00     0.014 C 
HETATM    7  C4  UNL     1     -33.539   6.732   6.398  1.00 20.00     0.043 C 
ENDBRANCH   3   5
ENDBRANCH   1   3
BRANCH   1   8
HETATM    8  C7  UNL     1     -32.839   7.394   3.092  1.00 20.00     0.451 C 
HETATM    9  F9  UNL     1     -33.227   8.324   4.000  1.00 20.00    -0.163 F 
HETATM   10  F10 UNL     1     -32.923   7.979   1.870  1.00 20.00    -0.163 F 
HETATM   11  F11 UNL     1     -31.525   7.142   3.318  1.00 20.00    -0.163 F 
ENDBRANCH   1   8
TORSDOF 3
