REMARK  4 active torsions:
REMARK  status: ('A' for Active; 'I' for Inactive)
REMARK    1  A    between atoms: C1_1  and  C8_8 
REMARK    2  A    between atoms: C1_1  and  C9_9 
REMARK    3  A    between atoms: C6_6  and  C8_8 
REMARK    4  A    between atoms: C7_7  and  C9_9 
ROOT
HETATM    1  C1  UNL     1     -33.098   6.211   2.584  1.00 20.00     0.127 C 
HETATM    2  O10 UNL     1     -33.424   5.189   1.982  1.00 20.00    -0.298 OA
ENDROOT
BRANCH   1   3
HETATM    3  C8  UNL     1     -32.252   7.297   1.941  1.00 20.00     0.082 C 
BRANCH   3   4
HETATM    4  C6  UNL     1     -33.088   8.370   1.267  1.00 20.00    -0.008 A 
HETATM    5  C2  UNL     1     -32.477   9.263   0.224  1.00 20.00     0.005 A 
HETATM    6  C3  UNL     1     -33.487   8.224  -0.176  1.00 20.00     0.005 A 
ENDBRANCH   3   4
ENDBRANCH   1   3
BRANCH   1   7
HETATM    7  C9  UNL     1     -33.513   6.471   4.023  1.00 20.00     0.082 C 
BRANCH   7   8
HETATM    8  C7  UNL     1     -34.830   5.807   4.383  1.00 20.00    -0.008 A 
HETATM    9  C4  UNL     1     -34.847   4.408   4.932  1.00 20.00     0.005 A 
HETATM   10  C5  UNL     1     -35.189   5.569   5.823  1.00 20.00     0.005 A 
ENDBRANCH   7   8
ENDBRANCH   1   7
TORSDOF 4
