REMARK  2 active torsions:
REMARK  status: ('A' for Active; 'I' for Inactive)
REMARK    1  A    between atoms: C1_1  and  C9_9 
REMARK    2  A    between atoms: C9_9  and  N10_10 
ROOT
HETATM    1  C2  UNL     1     -34.833   5.946   6.554  1.00 20.00     0.003 C 
HETATM    2  C3  UNL     1     -33.922   7.079   6.091  1.00 20.00     0.030 C 
HETATM    3  C4  UNL     1     -34.915   4.849   5.498  1.00 20.00     0.030 C 
HETATM    4  C5  UNL     1     -34.318   7.576   4.699  1.00 20.00     0.273 C 
HETATM    5  C6  UNL     1     -35.276   5.423   4.126  1.00 20.00     0.273 C 
HETATM    6  N10 UNL     1     -34.403   6.518   3.684  1.00 20.00     0.099 N 
ENDROOT
BRANCH   6   7
HETATM    7  C9  UNL     1     -33.086   6.042   3.269  1.00 20.00     0.287 C 
HETATM    8  C8  UNL     1     -33.185   4.922   2.249  1.00 20.00     0.051 C 
BRANCH   7   9
HETATM    9  C1  UNL     1     -32.336   7.231   2.689  1.00 20.00     0.155 C 
HETATM   10  C7  UNL     1     -32.903   7.837   1.432  1.00 20.00     0.093 C 
HETATM   11  O11 UNL     1     -31.341   7.712   3.231  1.00 20.00    -0.296 OA
ENDBRANCH   7   9
ENDBRANCH   6   7
TORSDOF 2
