REMARK  2 active torsions:
REMARK  status: ('A' for Active; 'I' for Inactive)
REMARK    1  A    between atoms: C1_1  and  C7_7 
REMARK    2  A    between atoms: C7_7  and  N8_8 
ROOT
HETATM    1  C1  UNL     1     -33.683   6.414   3.230  1.00 20.00    -0.053 C 
HETATM    2  C2  UNL     1     -33.107   7.131   2.458  1.00 20.00    -0.021 C 
HETATM    3 BR9  UNL     1     -32.197   8.267   1.237  1.00 20.00     0.010 Br
ENDROOT
BRANCH   1   4
HETATM    4  C7  UNL     1     -34.392   5.531   4.178  1.00 20.00     0.214 C 
HETATM    5  C3  UNL     1     -33.975   4.075   3.945  1.00 20.00     0.063 C 
HETATM    6  C4  UNL     1     -35.907   5.679   3.992  1.00 20.00     0.063 C 
BRANCH   4   7
HETATM    7  N8  UNL     1     -34.057   5.896   5.557  1.00 20.00     0.100 N 
HETATM    8  C5  UNL     1     -34.757   5.024   6.498  1.00 20.00     0.311 C 
HETATM    9  C6  UNL     1     -34.391   7.296   5.809  1.00 20.00     0.311 C 
ENDBRANCH   4   7
ENDBRANCH   1   4
TORSDOF 2
