REMARK  1 active torsions:
REMARK  status: ('A' for Active; 'I' for Inactive)
REMARK    1  A    between atoms: C11_11  and  N13_13 
ROOT
HETATM    1  C1  UNL     1     -33.145   8.481  -0.648  1.00 20.00     0.089 C 
HETATM    2  C11 UNL     1     -32.424   8.285   0.608  1.00 20.00     0.395 C 
HETATM    3  N12 UNL     1     -33.715   8.639  -1.647  1.00 20.00    -0.195 NA
ENDROOT
BRANCH   2   4
HETATM    4  N13 UNL     1     -33.161   7.386   1.497  1.00 20.00     0.101 N 
HETATM    5  C7  UNL     1     -32.943   5.986   1.107  1.00 20.00     0.274 C 
HETATM    6  C6  UNL     1     -33.738   5.027   1.999  1.00 20.00     0.035 C 
HETATM    7  C9  UNL     1     -33.389   5.240   3.474  1.00 20.00    -0.007 C 
HETATM    8  C4  UNL     1     -34.215   4.333   4.392  1.00 20.00     0.005 C 
HETATM    9  C10 UNL     1     -33.590   6.720   3.843  1.00 20.00     0.018 C 
HETATM   10  C2  UNL     1     -33.872   4.579   5.861  1.00 20.00     0.000 C 
HETATM   11  C3  UNL     1     -34.016   6.051   6.242  1.00 20.00     0.000 C 
HETATM   12  C5  UNL     1     -33.218   6.963   5.311  1.00 20.00     0.007 C 
HETATM   13  C8  UNL     1     -32.779   7.621   2.898  1.00 20.00     0.278 C 
ENDBRANCH   2   4
TORSDOF 1
