REMARK  2 active torsions:
REMARK  status: ('A' for Active; 'I' for Inactive)
REMARK    1  A    between atoms: C2_2  and  C4_4 
REMARK       I    between atoms: C2_2  and  N6_6 
REMARK    2  A    between atoms: C4_4  and  C5_5 
ROOT
HETATM    1  C1  UNL     1     -32.428   7.438   1.466  1.00 20.00     0.166 C 
HETATM    2  C2  UNL     1     -33.288   6.114   2.987  1.00 20.00     0.244 C 
HETATM    3  N6  UNL     1     -32.238   6.838   2.457  1.00 20.00    -0.199 NA
HETATM    4  O7  UNL     1     -33.548   4.932   2.763  1.00 20.00    -0.271 OA
HETATM    5  S8  UNL     1     -32.648   8.266   0.122  1.00 20.00    -0.055 SA
ENDROOT
BRANCH   2   6
HETATM    6  C4  UNL     1     -34.112   6.943   3.962  1.00 20.00     0.105 C 
BRANCH   6   7
HETATM    7  C5  UNL     1     -34.154   6.366   5.375  1.00 20.00     0.005 C 
HETATM    8  C3  UNL     1     -34.752   4.967   5.416  1.00 20.00     0.005 C 
ENDBRANCH   6   7
ENDBRANCH   2   6
TORSDOF 2
