REMARK  3 active torsions:
REMARK  status: ('A' for Active; 'I' for Inactive)
REMARK    1  A    between atoms: C1_1  and  C6_6 
REMARK    2  A    between atoms: C5_5  and  C7_7 
REMARK    3  A    between atoms: C6_6  and  C7_7 
ROOT
HETATM    1  C2  UNL     1     -32.150   7.181   1.716  1.00 20.00     0.033 C 
HETATM    2  C3  UNL     1     -32.751   7.959   0.564  1.00 20.00     0.168 C 
HETATM    3  C4  UNL     1     -33.514   8.894   2.556  1.00 20.00     0.172 C 
HETATM    4  C5  UNL     1     -33.153   7.443   2.818  1.00 20.00     0.012 C 
HETATM    5  O9  UNL     1     -33.437   9.083   1.135  1.00 20.00    -0.391 OA
ENDROOT
BRANCH   4   6
HETATM    6  C7  UNL     1     -32.623   7.186   4.215  1.00 20.00     0.013 C 
BRANCH   6   7
HETATM    7  C6  UNL     1     -33.754   7.027   5.226  1.00 20.00     0.070 C 
BRANCH   7   8
HETATM    8  C1  UNL     1     -34.653   5.854   4.915  1.00 20.00     0.231 C 
HETATM    9  O8  UNL     1     -34.284   4.814   4.380  1.00 20.00    -0.307 OA
ENDBRANCH   7   8
ENDBRANCH   6   7
ENDBRANCH   4   6
TORSDOF 3
