REMARK  1 active torsions:
REMARK  status: ('A' for Active; 'I' for Inactive)
REMARK    1  A    between atoms: C2_2  and  C6_6 
REMARK       I    between atoms: C2_2  and  N7_7 
ROOT
HETATM    1  C1  UNL     1     -32.805   7.302   1.922  1.00 20.00     0.167 C 
HETATM    2  C2  UNL     1     -33.530   5.472   2.880  1.00 20.00     0.273 C 
HETATM    3  N7  UNL     1     -32.525   6.235   2.324  1.00 20.00    -0.197 NA
HETATM    4  O8  UNL     1     -33.926   4.372   2.509  1.00 20.00    -0.268 OA
HETATM    5  S10 UNL     1     -33.147   8.755   1.365  1.00 20.00    -0.055 SA
ENDROOT
BRANCH   2   6
HETATM    6  C6  UNL     1     -34.177   6.106   4.066  1.00 20.00     0.215 C 
HETATM    7  C4  UNL     1     -33.203   6.906   4.910  1.00 20.00     0.044 C 
HETATM    8  C3  UNL     1     -33.681   6.619   6.312  1.00 20.00     0.029 C 
HETATM    9  C5  UNL     1     -34.130   5.181   6.199  1.00 20.00     0.168 C 
HETATM   10  O9  UNL     1     -34.666   5.032   4.878  1.00 20.00    -0.376 OA
ENDBRANCH   2   6
TORSDOF 1
