REMARK  3 active torsions:
REMARK  status: ('A' for Active; 'I' for Inactive)
REMARK    1  A    between atoms: C4_4  and  C7_7 
REMARK    2  A    between atoms: C6_6  and  N9_9 
REMARK    3  A    between atoms: C7_7  and  N9_9 
ROOT
HETATM    1  C1  UNL     1     -32.862   8.373   1.268  1.00 20.00     0.089 C 
HETATM    2  C6  UNL     1     -32.096   7.219   1.735  1.00 20.00     0.393 C 
HETATM    3  N8  UNL     1     -33.469   9.289   0.895  1.00 20.00    -0.195 NA
ENDROOT
BRANCH   2   4
HETATM    4  N9  UNL     1     -32.431   6.898   3.106  1.00 20.00     0.100 N 
HETATM    5  H21 UNL     1     -31.700   6.340   3.526  1.00 20.00     0.317 HD
BRANCH   4   6
HETATM    6  C7  UNL     1     -33.686   6.107   3.148  1.00 20.00     0.221 C 
HETATM    7  C5  UNL     1     -33.372   4.666   2.773  1.00 20.00     0.043 C 
BRANCH   6   8
HETATM    8  C4  UNL     1     -34.291   6.208   4.541  1.00 20.00     0.018 A 
HETATM    9  C2  UNL     1     -35.598   5.531   4.849  1.00 20.00     0.007 A 
HETATM   10  C3  UNL     1     -34.321   5.004   5.442  1.00 20.00     0.007 A 
ENDBRANCH   6   8
ENDBRANCH   4   6
ENDBRANCH   2   4
TORSDOF 3
