REMARK  3 active torsions:
REMARK  status: ('A' for Active; 'I' for Inactive)
REMARK    1  A    between atoms: C4_4  and  C7_7 
REMARK    2  A    between atoms: C6_6  and  N9_9 
REMARK    3  A    between atoms: C7_7  and  N9_9 
ROOT
HETATM    1  C1  UNL     1     -32.746   8.375   0.785  1.00 20.00     0.089 C 
HETATM    2  C6  UNL     1     -32.478   7.533   1.949  1.00 20.00     0.393 C 
HETATM    3  N8  UNL     1     -32.954   9.045  -0.139  1.00 20.00    -0.195 NA
ENDROOT
BRANCH   2   4
HETATM    4  N9  UNL     1     -33.661   6.792   2.332  1.00 20.00     0.100 N 
HETATM    5  H21 UNL     1     -34.288   7.379   2.866  1.00 20.00     0.317 HD
BRANCH   4   6
HETATM    6  C7  UNL     1     -33.282   5.640   3.187  1.00 20.00     0.221 C 
HETATM    7  C5  UNL     1     -32.720   4.536   2.303  1.00 20.00     0.043 C 
BRANCH   6   8
HETATM    8  C4  UNL     1     -34.505   5.173   3.964  1.00 20.00     0.018 A 
HETATM    9  C2  UNL     1     -34.339   4.383   5.233  1.00 20.00     0.007 A 
HETATM   10  C3  UNL     1     -34.843   5.798   5.289  1.00 20.00     0.007 A 
ENDBRANCH   6   8
ENDBRANCH   4   6
ENDBRANCH   2   4
TORSDOF 3
