REMARK  1 active torsions:
REMARK  status: ('A' for Active; 'I' for Inactive)
REMARK    1  A    between atoms: C7_7  and  O9_9 
ROOT
HETATM    1  C1  UNL     1     -33.181   7.486   2.565  1.00 20.00     0.097 C 
HETATM    2  C2  UNL     1     -33.810   6.943   4.803  1.00 20.00    -0.006 C 
HETATM    3  C3  UNL     1     -33.642   6.542   3.530  1.00 20.00     0.047 C 
HETATM    4  C4  UNL     1     -34.296   6.045   5.903  1.00 20.00     0.028 C 
HETATM    5  C5  UNL     1     -34.308   4.565   5.523  1.00 20.00     0.007 C 
HETATM    6  C6  UNL     1     -34.830   4.368   4.101  1.00 20.00     0.037 C 
HETATM    7  C7  UNL     1     -33.974   5.137   3.086  1.00 20.00     0.161 C 
HETATM    8  N8  UNL     1     -32.805   8.254   1.780  1.00 20.00    -0.192 NA
ENDROOT
BRANCH   7   9
HETATM    9  O9  UNL     1     -32.762   4.410   2.881  1.00 20.00    -0.390 OA
HETATM   10  H18 UNL     1     -33.020   3.520   2.599  1.00 20.00     0.210 HD
ENDBRANCH   7   9
TORSDOF 1
