REMARK  1 active torsions:
REMARK  status: ('A' for Active; 'I' for Inactive)
REMARK    1  A    between atoms: C7_7  and  N8_8 
ROOT
HETATM    1  C1  UNL     1     -33.199   8.355   0.208  1.00 20.00     0.013 C 
HETATM    2  C2  UNL     1     -32.882   8.066   1.329  1.00 20.00    -0.087 C 
HETATM    3  C7  UNL     1     -32.489   7.715   2.696  1.00 20.00     0.365 C 
ENDROOT
BRANCH   3   4
HETATM    4  N8  UNL     1     -33.528   6.928   3.343  1.00 20.00     0.106 N 
HETATM    5  C5  UNL     1     -33.417   6.949   4.802  1.00 20.00     0.351 C 
HETATM    6  C3  UNL     1     -34.140   5.679   5.171  1.00 20.00     0.156 C 
HETATM    7  C4  UNL     1     -34.395   4.829   3.961  1.00 20.00     0.110 C 
HETATM    8  O9  UNL     1     -34.477   5.382   6.309  1.00 20.00    -0.296 OA
HETATM    9  C6  UNL     1     -33.492   5.516   2.945  1.00 20.00     0.281 C 
ENDBRANCH   3   4
TORSDOF 1
