REMARK  3 active torsions:
REMARK  status: ('A' for Active; 'I' for Inactive)
REMARK    1  A    between atoms: C3_3  and  C6_6 
REMARK    2  A    between atoms: C3_3  and  O11_11 
REMARK    3  A    between atoms: C8_8  and  O11_11 
ROOT
HETATM    1  C1  UNL     1     -33.668   6.762   6.350  1.00 20.00    -0.025 C 
HETATM    2  C2  UNL     1     -34.836   6.110   6.411  1.00 20.00    -0.005 C 
HETATM    3  C4  UNL     1     -32.900   6.861   5.067  1.00 20.00     0.069 C 
HETATM    4  C5  UNL     1     -35.419   5.417   5.216  1.00 20.00     0.196 C 
HETATM    5  C6  UNL     1     -33.777   6.477   3.877  1.00 20.00     0.224 C 
HETATM    6  O10 UNL     1     -34.469   5.262   4.154  1.00 20.00    -0.372 OA
ENDROOT
BRANCH   5   7
HETATM    7  C3  UNL     1     -32.947   6.181   2.671  1.00 20.00     0.288 C 
HETATM    8  O9  UNL     1     -32.891   5.085   2.131  1.00 20.00    -0.262 OA
BRANCH   7   9
HETATM    9  O11 UNL     1     -32.282   7.308   2.288  1.00 20.00    -0.320 OA
BRANCH   9  10
HETATM   10  C8  UNL     1     -32.570   7.773   0.966  1.00 20.00     0.174 C 
HETATM   11  C7  UNL     1     -33.137   9.174   1.049  1.00 20.00     0.034 C 
ENDBRANCH   9  10
ENDBRANCH   7   9
ENDBRANCH   5   7
TORSDOF 3
