REMARK  0 active torsions:
REMARK  status: ('A' for Active; 'I' for Inactive)
ROOT
HETATM    1  C1  UNL     1     -33.436   7.088   5.322  1.00 20.00     0.047 C 
HETATM    2  C2  UNL     1     -34.275   6.557   6.218  1.00 20.00    -0.023 C 
HETATM    3  C3  UNL     1     -33.270   6.468   3.981  1.00 20.00     0.157 C 
HETATM    4  C4  UNL     1     -35.060   5.302   6.001  1.00 20.00     0.028 C 
HETATM    5  C5  UNL     1     -34.504   4.463   4.852  1.00 20.00     0.021 C 
HETATM    6  C6  UNL     1     -34.181   5.296   3.596  1.00 20.00     0.017 C 
HETATM    7  C7  UNL     1     -35.454   5.864   2.951  1.00 20.00     0.023 C 
HETATM    8  C8  UNL     1     -33.462   4.396   2.578  1.00 20.00     0.023 C 
HETATM    9  O9  UNL     1     -32.448   6.951   3.203  1.00 20.00    -0.292 OA
ENDROOT
TORSDOF 0
