REMARK  0 active torsions:
REMARK  status: ('A' for Active; 'I' for Inactive)
ROOT
HETATM    1  C1  UNL     1     -33.345   6.743   2.321  1.00 20.00     0.003 C 
HETATM    2  C2  UNL     1     -33.668   5.262   2.122  1.00 20.00     0.001 C 
HETATM    3  C3  UNL     1     -32.770   7.029   3.701  1.00 20.00     0.041 C 
HETATM    4  C4  UNL     1     -33.813   4.482   3.432  1.00 20.00     0.012 C 
HETATM    5  C5  UNL     1     -34.221   7.628   5.787  1.00 20.00     0.207 A 
HETATM    6  C6  UNL     1     -33.723   6.594   4.789  1.00 20.00     0.089 A 
HETATM    7  C7  UNL     1     -34.499   5.285   4.567  1.00 20.00    -0.014 C 
HETATM    8  C8  UNL     1     -35.960   5.590   4.177  1.00 20.00     0.018 C 
HETATM    9  C9  UNL     1     -34.518   4.392   5.825  1.00 20.00     0.018 C 
HETATM   10  O10 UNL     1     -33.142   6.747   6.100  1.00 20.00    -0.374 OA
ENDROOT
TORSDOF 0
