REMARK  3 active torsions:
REMARK  status: ('A' for Active; 'I' for Inactive)
REMARK    1  A    between atoms: C6_6  and  N8_8 
REMARK    2  A    between atoms: C6_6  and  O9_9 
REMARK    3  A    between atoms: C7_7  and  O9_9 
ROOT
HETATM    1  O9  UNL     1     -33.542   6.348   4.486  1.00 20.00    -0.352 OA
ENDROOT
BRANCH   1   2
HETATM    2  C6  UNL     1     -33.550   7.218   3.347  1.00 20.00     0.440 C 
BRANCH   2   3
HETATM    3  N8  UNL     1     -32.597   6.786   2.314  1.00 20.00     0.102 N 
HETATM    4  C4  UNL     1     -31.240   6.744   2.861  1.00 20.00     0.312 C 
HETATM    5  C5  UNL     1     -32.643   7.676   1.153  1.00 20.00     0.312 C 
ENDBRANCH   2   3
ENDBRANCH   1   2
BRANCH   1   6
HETATM    6  C7  UNL     1     -34.308   5.173   4.258  1.00 20.00     0.052 C 
HETATM    7  C1  UNL     1     -33.712   4.427   3.065  1.00 20.00     0.045 C 
HETATM    8  C2  UNL     1     -34.227   4.319   5.521  1.00 20.00     0.045 C 
HETATM    9  C3  UNL     1     -35.754   5.582   3.977  1.00 20.00     0.045 C 
ENDBRANCH   1   6
TORSDOF 3
