REMARK  0 active torsions:
REMARK  status: ('A' for Active; 'I' for Inactive)
ROOT
HETATM    1  C1  UNL     1     -32.613   7.550   2.009  1.00 20.00     0.071 C 
HETATM    2  C2  UNL     1     -33.498   5.594   3.237  1.00 20.00     0.152 C 
HETATM    3  C3  UNL     1     -33.527   7.696   4.314  1.00 20.00     0.028 C 
HETATM    4  C4  UNL     1     -34.088   6.650   5.272  1.00 20.00     0.018 C 
HETATM    5  C5  UNL     1     -32.712   6.886   3.308  1.00 20.00     0.163 C 
HETATM    6  C6  UNL     1     -34.504   5.471   4.376  1.00 20.00     0.015 C 
HETATM    7  C7  UNL     1     -35.919   5.644   3.821  1.00 20.00     0.023 C 
HETATM    8  C8  UNL     1     -34.361   4.137   5.102  1.00 20.00     0.023 C 
HETATM    9  N9  UNL     1     -32.535   8.076   0.978  1.00 20.00    -0.196 NA
HETATM   10  O10 UNL     1     -33.342   4.743   2.369  1.00 20.00    -0.296 OA
ENDROOT
TORSDOF 0
