REMARK  3 active torsions:
REMARK  status: ('A' for Active; 'I' for Inactive)
REMARK    1  A    between atoms: C6_6  and  C7_7 
REMARK    2  A    between atoms: C7_7  and  C8_8 
REMARK    3  A    between atoms: C7_7  and  O9_9 
ROOT
HETATM    1  C1  UNL     1     -32.687   8.474   0.413  1.00 20.00     0.012 C 
HETATM    2  C2  UNL     1     -32.646   7.820   1.419  1.00 20.00    -0.115 C 
HETATM    3  C6  UNL     1     -32.593   7.018   2.655  1.00 20.00     0.125 C 
ENDROOT
BRANCH   3   4
HETATM    4  C7  UNL     1     -33.850   6.146   2.806  1.00 20.00     0.136 C 
BRANCH   4   5
HETATM    5  C8  UNL     1     -34.118   5.608   4.248  1.00 20.00    -0.025 C 
HETATM    6  C3  UNL     1     -35.374   4.709   4.232  1.00 20.00     0.017 C 
HETATM    7  C4  UNL     1     -32.941   4.772   4.785  1.00 20.00     0.017 C 
HETATM    8  C5  UNL     1     -34.381   6.774   5.220  1.00 20.00     0.017 C 
ENDBRANCH   4   5
BRANCH   4   9
HETATM    9  O9  UNL     1     -33.750   5.050   1.888  1.00 20.00    -0.394 OA
HETATM   10  H23 UNL     1     -32.948   4.567   2.133  1.00 20.00     0.210 HD
ENDBRANCH   4   9
ENDBRANCH   3   4
TORSDOF 3
