REMARK  1 active torsions:
REMARK  status: ('A' for Active; 'I' for Inactive)
REMARK    1  A    between atoms: C1_1  and  C3_3 
ROOT
HETATM    1  C1  UNL     1     -33.303   6.681   3.966  1.00 20.00     0.035 C 
HETATM    2  C2  UNL     1     -33.724   5.444   3.709  1.00 20.00     0.053 C 
HETATM    3  C4  UNL     1     -33.967   7.186   5.186  1.00 20.00     0.073 C 
HETATM    4  C5  UNL     1     -34.590   5.900   5.714  1.00 20.00     0.180 C 
HETATM    5  C6  UNL     1     -33.377   4.531   2.587  1.00 20.00     0.077 C 
HETATM    6  O8  UNL     1     -34.648   4.949   4.631  1.00 20.00    -0.355 OA
ENDROOT
BRANCH   1   7
HETATM    7  C3  UNL     1     -32.355   7.470   3.199  1.00 20.00     0.250 C 
HETATM    8  O7  UNL     1     -31.310   7.864   3.741  1.00 20.00    -0.274 OA
HETATM    9 CL9  UNL     1     -32.761   7.819   1.527  1.00 20.00    -0.039 Cl
ENDBRANCH   1   7
TORSDOF 1
