REMARK  1 active torsions:
REMARK  status: ('A' for Active; 'I' for Inactive)
REMARK    1  A    between atoms: C5_5  and  C10_10 
ROOT
HETATM    1  C1  UNL     1     -33.566   4.894   3.243  1.00 20.00     0.166 C 
HETATM    2  C2  UNL     1     -32.649   5.744   2.386  1.00 20.00     0.086 C 
HETATM    3  C3  UNL     1     -33.558   7.866   3.453  1.00 20.00     0.009 C 
HETATM    4  C4  UNL     1     -33.737   6.942   4.659  1.00 20.00     0.052 C 
HETATM    5  C5  UNL     1     -33.268   7.119   2.138  1.00 20.00    -0.004 C 
HETATM    6  C6  UNL     1     -34.375   5.596   4.324  1.00 20.00     0.159 C 
HETATM    7  C7  UNL     1     -35.833   5.714   3.901  1.00 20.00     0.060 C 
HETATM    8  O11 UNL     1     -33.618   3.672   3.101  1.00 20.00    -0.294 OA
HETATM    9  F12 UNL     1     -34.352   4.845   5.467  1.00 20.00    -0.235 F 
ENDROOT
BRANCH   5  10
HETATM   10  C10 UNL     1     -32.386   7.960   1.216  1.00 20.00    -0.018 C 
HETATM   11  C8  UNL     1     -32.181   7.253  -0.122  1.00 20.00     0.010 C 
HETATM   12  C9  UNL     1     -32.997   9.343   1.005  1.00 20.00     0.010 C 
ENDBRANCH   5  10
TORSDOF 1
