REMARK  1 active torsions:
REMARK  status: ('A' for Active; 'I' for Inactive)
REMARK    1  A    between atoms: C6_6  and  C8_8 
ROOT
HETATM    1  C1  UNL     1     -32.707   7.092   3.963  1.00 20.00     0.144 C 
HETATM    2  C2  UNL     1     -31.651   7.358   2.908  1.00 20.00     0.079 C 
HETATM    3  C3  UNL     1     -32.282   7.536   1.536  1.00 20.00     0.007 C 
HETATM    4  C4  UNL     1     -33.190   6.366   1.177  1.00 20.00     0.002 C 
HETATM    5  C5  UNL     1     -34.282   6.182   2.231  1.00 20.00     0.026 C 
HETATM    6  C6  UNL     1     -33.736   5.992   3.661  1.00 20.00     0.114 C 
HETATM    7  C7  UNL     1     -33.057   4.625   3.829  1.00 20.00     0.033 C 
HETATM    8  O9  UNL     1     -32.669   7.681   5.044  1.00 20.00    -0.297 OA
ENDROOT
BRANCH   6   9
HETATM    9  C8  UNL     1     -34.908   6.085   4.652  1.00 20.00     0.401 C 
HETATM   10  F10 UNL     1     -35.498   7.281   4.540  1.00 20.00    -0.170 F 
HETATM   11  F11 UNL     1     -35.800   5.124   4.384  1.00 20.00    -0.170 F 
HETATM   12  F12 UNL     1     -34.454   5.931   5.901  1.00 20.00    -0.170 F 
ENDBRANCH   6   9
TORSDOF 1
