REMARK  0 active torsions:
REMARK  status: ('A' for Active; 'I' for Inactive)
ROOT
HETATM    1  C1  UNL     1     -33.980   5.467   4.088  1.00 20.00    -0.064 C 
HETATM    2  C2  UNL     1     -33.409   5.352   2.885  1.00 20.00     0.016 C 
HETATM    3  C3  UNL     1     -34.685   4.383   4.826  1.00 20.00     0.061 C 
HETATM    4  C4  UNL     1     -33.946   6.681   4.952  1.00 20.00     0.201 C 
HETATM    5  C5  UNL     1     -34.499   4.857   6.252  1.00 20.00     0.172 C 
HETATM    6  O6  UNL     1     -34.564   6.288   6.192  1.00 20.00    -0.387 OA
ENDROOT
TORSDOF 0
