REMARK  1 active torsions:
REMARK  status: ('A' for Active; 'I' for Inactive)
REMARK    1  A    between atoms: C3_3  and  C8_8 
ROOT
HETATM    1  C1  UNL     1     -32.618   7.347   4.056  1.00 20.00     0.302 C 
HETATM    2  C2  UNL     1     -33.581   5.070   3.168  1.00 20.00     0.209 C 
HETATM    3  C3  UNL     1     -32.477   7.091   2.548  1.00 20.00     0.149 C 
HETATM    4  C4  UNL     1     -34.511   5.813   4.150  1.00 20.00     0.171 C 
HETATM    5  C5  UNL     1     -34.680   4.973   5.425  1.00 20.00     0.051 C 
HETATM    6  C6  UNL     1     -35.889   6.035   3.506  1.00 20.00     0.051 C 
HETATM    7  N9  UNL     1     -33.995   7.152   4.493  1.00 20.00     0.097 N 
HETATM    8  O10 UNL     1     -33.194   5.931   2.102  1.00 20.00    -0.382 OA
HETATM    9  H27 UNL     1     -34.032   7.268   5.505  1.00 20.00     0.317 HD
ENDROOT
BRANCH   3  10
HETATM   10  C8  UNL     1     -32.973   8.269   1.714  1.00 20.00     0.029 C 
HETATM   11  C7  UNL     1     -32.840   8.009   0.248  1.00 20.00     0.007 C 
ENDBRANCH   3  10
TORSDOF 1
