REMARK  0 active torsions:
REMARK  status: ('A' for Active; 'I' for Inactive)
ROOT
HETATM    1  C1  UNL     1     -34.521   5.712   6.416  1.00 20.00    -0.003 C 
HETATM    2  C2  UNL     1     -34.575   4.907   5.212  1.00 20.00     0.011 C 
HETATM    3  C3  UNL     1     -33.966   6.911   6.155  1.00 20.00    -0.017 C 
HETATM    4  C4  UNL     1     -34.083   5.657   4.227  1.00 20.00    -0.005 C 
HETATM    5  C5  UNL     1     -33.437   5.386   2.938  1.00 20.00     0.156 C 
HETATM    6  C6  UNL     1     -32.405   6.467   2.708  1.00 20.00     0.084 C 
HETATM    7  C7  UNL     1     -32.325   7.158   4.094  1.00 20.00     0.021 C 
HETATM    8  C8  UNL     1     -33.730   7.036   4.681  1.00 20.00     0.045 C 
HETATM    9  O9  UNL     1     -33.692   4.451   2.202  1.00 20.00    -0.293 OA
ENDROOT
TORSDOF 0
