REMARK  3 active torsions:
REMARK  status: ('A' for Active; 'I' for Inactive)
REMARK    1  A    between atoms: C3_3  and  C6_6 
REMARK    2  A    between atoms: C3_3  and  C7_7 
REMARK    3  A    between atoms: C5_5  and  C7_7 
ROOT
HETATM    1  C1  UNL     1     -34.991   5.003   5.248  1.00 20.00     0.012 C 
HETATM    2  C2  UNL     1     -34.419   4.692   4.239  1.00 20.00    -0.117 C 
HETATM    3  C5  UNL     1     -33.717   4.309   3.005  1.00 20.00     0.100 C 
ENDROOT
BRANCH   3   4
HETATM    4  C7  UNL     1     -33.731   5.431   1.970  1.00 20.00     0.090 C 
BRANCH   4   5
HETATM    5  C3  UNL     1     -33.048   6.711   2.439  1.00 20.00     0.127 C 
HETATM    6  O8  UNL     1     -32.996   7.033   3.625  1.00 20.00    -0.298 OA
BRANCH   5   7
HETATM    7  C6  UNL     1     -32.414   7.552   1.343  1.00 20.00     0.074 C 
HETATM    8  C4  UNL     1     -33.423   8.039   0.319  1.00 20.00     0.013 C 
ENDBRANCH   5   7
ENDBRANCH   4   5
ENDBRANCH   3   4
TORSDOF 3
