REMARK  5 active torsions:
REMARK  status: ('A' for Active; 'I' for Inactive)
REMARK    1  A    between atoms: C5_5  and  C9_9 
REMARK    2  A    between atoms: C6_6  and  C9_9 
REMARK    3  A    between atoms: C7_7  and  N11_11 
REMARK    4  A    between atoms: C8_8  and  N11_11 
REMARK    5  A    between atoms: C9_9  and  N11_11 
ROOT
HETATM    1  C1  UNL     1     -32.850   7.704   2.205  1.00 20.00     0.061 C 
HETATM    2  C5  UNL     1     -31.952   6.885   3.034  1.00 20.00     0.159 C 
HETATM    3  N10 UNL     1     -33.555   8.352   1.549  1.00 20.00    -0.197 NA
ENDROOT
BRANCH   2   4
HETATM    4  C9  UNL     1     -32.659   5.638   3.597  1.00 20.00     0.235 C 
BRANCH   4   5
HETATM    5  C6  UNL     1     -32.761   4.515   2.546  1.00 20.00     0.032 C 
HETATM    6  C2  UNL     1     -33.524   4.920   1.289  1.00 20.00     0.007 C 
ENDBRANCH   4   5
BRANCH   4   7
HETATM    7  N11 UNL     1     -33.996   6.035   4.051  1.00 20.00     0.093 N 
BRANCH   7   8
HETATM    8  C7  UNL     1     -33.896   7.056   5.092  1.00 20.00     0.268 C 
HETATM    9  C3  UNL     1     -33.183   6.532   6.292  1.00 20.00     0.037 C 
ENDBRANCH   7   8
BRANCH   7  10
HETATM   10  C8  UNL     1     -34.730   4.871   4.542  1.00 20.00     0.268 C 
HETATM   11  C4  UNL     1     -36.113   5.243   4.957  1.00 20.00     0.037 C 
ENDBRANCH   7  10
ENDBRANCH   4   7
ENDBRANCH   2   4
TORSDOF 5
