REMARK  2 active torsions:
REMARK  status: ('A' for Active; 'I' for Inactive)
REMARK    1  A    between atoms: C6_6  and  C7_7 
REMARK    2  A    between atoms: C7_7  and  N9_9 
ROOT
HETATM    1  C1  UNL     1     -35.895   5.759   4.149  1.00 20.00     0.101 C 
HETATM    2  C4  UNL     1     -34.539   7.806   4.115  1.00 20.00     0.066 C 
HETATM    3  C7  UNL     1     -34.509   6.269   4.079  1.00 20.00     0.243 C 
HETATM    4  N8  UNL     1     -36.983   5.360   4.206  1.00 20.00    -0.195 NA
ENDROOT
BRANCH   3   5
HETATM    5  C6  UNL     1     -33.761   5.735   2.815  1.00 20.00     0.030 C 
HETATM    6  C2  UNL     1     -33.697   4.203   2.738  1.00 20.00     0.013 C 
HETATM    7  C3  UNL     1     -32.336   6.300   2.675  1.00 20.00     0.013 C 
ENDBRANCH   3   5
BRANCH   3   8
HETATM    8  N9  UNL     1     -33.788   5.835   5.267  1.00 20.00     0.102 N 
HETATM    9  C5  UNL     1     -34.637   5.914   6.449  1.00 20.00     0.309 C 
HETATM   10  H23 UNL     1     -32.972   6.431   5.401  1.00 20.00     0.317 HD
ENDBRANCH   3   8
TORSDOF 2
