REMARK  1 active torsions:
REMARK  status: ('A' for Active; 'I' for Inactive)
REMARK    1  A    between atoms: C1_1  and  S9_9 
ROOT
HETATM    1  C1  UNL     1     -33.597   6.002   2.884  1.00 20.00     0.047 A 
HETATM    2  C2  UNL     1     -33.220   7.357   2.958  1.00 20.00     0.069 A 
HETATM    3  C3  UNL     1     -34.067   5.707   4.141  1.00 20.00     0.044 A 
HETATM    4  C4  UNL     1     -32.646   8.205   1.897  1.00 20.00     0.074 C 
HETATM    5  C5  UNL     1     -34.610   4.462   4.717  1.00 20.00     0.071 C 
HETATM    6  C6  UNL     1     -34.314   7.058   6.246  1.00 20.00     0.179 C 
HETATM    7  N7  UNL     1     -33.434   7.886   4.166  1.00 20.00    -0.176 NA
HETATM    8  N8  UNL     1     -33.949   6.859   4.862  1.00 20.00    -0.277 N 
ENDROOT
BRANCH   1   9
HETATM    9  S9  UNL     1     -33.485   4.950   1.506  1.00 20.00    -0.139 SA
HETATM   10  H19 UNL     1     -33.984   3.824   2.053  1.00 20.00     0.107 HD
ENDBRANCH   1   9
TORSDOF 1
