REMARK  2 active torsions:
REMARK  status: ('A' for Active; 'I' for Inactive)
REMARK    1  A    between atoms: C1_1  and  C5_5 
REMARK       I    between atoms: C1_1  and  N7_7 
REMARK    2  A    between atoms: C5_5  and  C6_6 
ROOT
HETATM    1  C1  UNL     1     -32.637   7.067   3.429  1.00 20.00     0.220 C 
HETATM    2  C2  UNL     1     -34.785   5.752   5.717  1.00 20.00     0.040 C 
HETATM    3  C3  UNL     1     -33.686   6.821   5.755  1.00 20.00     0.127 C 
HETATM    4  C4  UNL     1     -34.820   5.900   4.191  1.00 20.00     0.127 C 
HETATM    5  N7  UNL     1     -33.579   6.637   4.321  1.00 20.00    -0.352 N 
HETATM    6  O8  UNL     1     -31.650   7.735   3.734  1.00 20.00    -0.273 OA
ENDROOT
BRANCH   1   7
HETATM    7  C5  UNL     1     -32.894   6.651   2.006  1.00 20.00     0.118 C 
BRANCH   7   8
HETATM    8  C6  UNL     1     -32.334   7.675   1.039  1.00 20.00     0.124 C 
HETATM    9 CL9  UNL     1     -33.101   9.268   1.258  1.00 20.00    -0.130 Cl
ENDBRANCH   7   8
ENDBRANCH   1   7
TORSDOF 2
