REMARK  4 active torsions:
REMARK  status: ('A' for Active; 'I' for Inactive)
REMARK    1  A    between atoms: C3_3  and  C6_6 
REMARK    2  A    between atoms: C3_3  and  C7_7 
REMARK    3  A    between atoms: C5_5  and  C6_6 
REMARK    4  A    between atoms: C7_7  and  C8_8 
ROOT
HETATM    1  C1  UNL     1     -34.289   6.785   6.527  1.00 20.00     0.012 C 
HETATM    2  C2  UNL     1     -34.577   5.764   5.964  1.00 20.00    -0.117 C 
HETATM    3  C5  UNL     1     -34.929   4.512   5.276  1.00 20.00     0.100 C 
ENDROOT
BRANCH   3   4
HETATM    4  C6  UNL     1     -35.046   4.706   3.766  1.00 20.00     0.090 C 
BRANCH   4   5
HETATM    5  C3  UNL     1     -33.750   5.153   3.100  1.00 20.00     0.127 C 
HETATM    6  O9  UNL     1     -33.178   4.473   2.250  1.00 20.00    -0.298 OA
BRANCH   5   7
HETATM    7  C7  UNL     1     -33.223   6.510   3.542  1.00 20.00     0.078 C 
BRANCH   7   8
HETATM    8  C8  UNL     1     -32.472   7.237   2.430  1.00 20.00     0.003 C 
HETATM    9  C4  UNL     1     -33.354   7.456   1.212  1.00 20.00     0.005 C 
ENDBRANCH   7   8
ENDBRANCH   5   7
ENDBRANCH   4   5
ENDBRANCH   3   4
TORSDOF 4
