REMARK  2 active torsions:
REMARK  status: ('A' for Active; 'I' for Inactive)
REMARK    1  A    between atoms: C1_1  and  C3_3 
REMARK    2  A    between atoms: C7_7  and  C9_9 
ROOT
HETATM    1  C1  UNL     1     -33.587   6.960   4.073  1.00 20.00    -0.002 C 
HETATM    2  C2  UNL     1     -33.813   5.704   3.649  1.00 20.00     0.021 C 
HETATM    3  C4  UNL     1     -32.930   8.004   3.207  1.00 20.00     0.047 C 
HETATM    4  C5  UNL     1     -33.460   5.236   2.262  1.00 20.00     0.052 C 
HETATM    5  C6  UNL     1     -33.123   6.377   1.298  1.00 20.00     0.010 C 
HETATM    6  C7  UNL     1     -32.224   7.417   1.973  1.00 20.00    -0.010 C 
HETATM    7 CL11 UNL     1     -34.542   4.473   4.629  1.00 20.00    -0.088 Cl
ENDROOT
BRANCH   1   8
HETATM    8  C3  UNL     1     -33.955   7.411   5.426  1.00 20.00     0.267 C 
HETATM    9  O10 UNL     1     -33.974   6.653   6.383  1.00 20.00    -0.302 OA
ENDBRANCH   1   8
BRANCH   6  10
HETATM   10  C9  UNL     1     -31.831   8.522   0.995  1.00 20.00     0.000 C 
HETATM   11  C8  UNL     1     -33.027   9.262   0.490  1.00 20.00     0.005 C 
ENDBRANCH   6  10
TORSDOF 2
