REMARK  3 active torsions:
REMARK  status: ('A' for Active; 'I' for Inactive)
REMARK    1  A    between atoms: C2_2  and  C5_5 
REMARK    2  A    between atoms: C2_2  and  C7_7 
REMARK    3  A    between atoms: C5_5  and  C6_6 
ROOT
HETATM    1  C1  UNL     1     -34.170   5.652   5.071  1.00 20.00     0.071 C 
HETATM    2  C4  UNL     1     -33.694   4.232   3.113  1.00 20.00     0.033 C 
HETATM    3  C7  UNL     1     -34.153   5.601   3.600  1.00 20.00     0.158 C 
HETATM    4  N8  UNL     1     -34.187   5.692   6.231  1.00 20.00    -0.196 NA
ENDROOT
BRANCH   3   5
HETATM    5  C2  UNL     1     -33.237   6.677   3.026  1.00 20.00     0.144 C 
HETATM    6  O9  UNL     1     -32.237   7.068   3.627  1.00 20.00    -0.297 OA
BRANCH   5   7
HETATM    7  C5  UNL     1     -33.641   7.248   1.673  1.00 20.00     0.079 C 
BRANCH   7   8
HETATM    8  C6  UNL     1     -32.682   8.311   1.142  1.00 20.00     0.003 C 
HETATM    9  C3  UNL     1     -33.148   8.910  -0.177  1.00 20.00     0.005 C 
ENDBRANCH   7   8
ENDBRANCH   5   7
ENDBRANCH   3   5
TORSDOF 3
