REMARK  3 active torsions:
REMARK  status: ('A' for Active; 'I' for Inactive)
REMARK    1  A    between atoms: C2_2  and  C4_4 
REMARK    2  A    between atoms: C2_2  and  C9_9 
REMARK    3  A    between atoms: C8_8  and  C9_9 
ROOT
HETATM    1  C1  UNL     1     -33.784   6.303   4.913  1.00 20.00     0.071 C 
HETATM    2  C9  UNL     1     -33.910   6.132   3.454  1.00 20.00     0.162 C 
HETATM    3  N10 UNL     1     -33.688   6.439   6.061  1.00 20.00    -0.196 NA
ENDROOT
BRANCH   2   4
HETATM    4  C2  UNL     1     -33.111   7.185   2.702  1.00 20.00     0.148 C 
HETATM    5  O11 UNL     1     -32.406   8.031   3.238  1.00 20.00    -0.296 OA
BRANCH   4   6
HETATM    6  C4  UNL     1     -33.227   7.158   1.213  1.00 20.00     0.061 A 
HETATM    7  C3  UNL     1     -32.017   7.483   0.397  1.00 20.00     0.017 A 
HETATM    8  C5  UNL     1     -33.179   8.434   0.433  1.00 20.00    -0.007 A 
HETATM    9  C6  UNL     1     -33.028   9.772   1.073  1.00 20.00     0.011 C 
ENDBRANCH   4   6
ENDBRANCH   2   4
BRANCH   2  10
HETATM   10  C8  UNL     1     -33.516   4.715   3.010  1.00 20.00     0.022 C 
HETATM   11  C7  UNL     1     -34.318   3.596   3.669  1.00 20.00     0.007 C 
ENDBRANCH   2  10
TORSDOF 3
