REMARK  3 active torsions:
REMARK  status: ('A' for Active; 'I' for Inactive)
REMARK    1  A    between atoms: C2_2  and  C7_7 
REMARK    2  A    between atoms: C2_2  and  C8_8 
REMARK    3  A    between atoms: C7_7  and  C9_9 
ROOT
HETATM    1  C1  UNL     1     -32.751   8.017   0.810  1.00 20.00     0.071 C 
HETATM    2  C3  UNL     1     -30.930   7.678   2.438  1.00 20.00     0.033 C 
HETATM    3  C8  UNL     1     -32.434   7.814   2.234  1.00 20.00     0.158 C 
HETATM    4  N10 UNL     1     -33.002   8.181  -0.311  1.00 20.00    -0.196 NA
ENDROOT
BRANCH   3   5
HETATM    5  C2  UNL     1     -33.129   6.569   2.774  1.00 20.00     0.144 C 
HETATM    6  O11 UNL     1     -33.378   5.596   2.060  1.00 20.00    -0.296 OA
BRANCH   5   7
HETATM    7  C7  UNL     1     -33.537   6.582   4.241  1.00 20.00     0.088 C 
BRANCH   7   8
HETATM    8  C9  UNL     1     -34.314   5.332   4.711  1.00 20.00    -0.045 C 
HETATM    9  C4  UNL     1     -34.741   5.460   6.182  1.00 20.00     0.015 C 
HETATM   10  C5  UNL     1     -33.477   4.054   4.535  1.00 20.00     0.015 C 
HETATM   11  C6  UNL     1     -35.583   5.205   3.844  1.00 20.00     0.015 C 
ENDBRANCH   7   8
ENDBRANCH   5   7
ENDBRANCH   3   5
TORSDOF 3
