REMARK  3 active torsions:
REMARK  status: ('A' for Active; 'I' for Inactive)
REMARK    1  A    between atoms: C1_1  and  C4_4 
REMARK       I    between atoms: C1_1  and  N7_7 
REMARK    2  A    between atoms: C5_5  and  C6_6 
REMARK    3  A    between atoms: C6_6  and  N7_7 
ROOT
HETATM    1  C1  UNL     1     -33.939   5.440   3.115  1.00 20.00     0.233 C 
HETATM    2  C3  UNL     1     -34.046   7.808   4.034  1.00 20.00     0.152 C 
HETATM    3  N7  UNL     1     -33.443   6.745   3.233  1.00 20.00    -0.356 N 
HETATM    4  O8  UNL     1     -33.396   4.574   2.425  1.00 20.00    -0.272 OA
ENDROOT
BRANCH   3   5
HETATM    5  C6  UNL     1     -32.227   7.119   2.522  1.00 20.00     0.125 C 
BRANCH   5   6
HETATM    6  C5  UNL     1     -32.514   7.661   1.127  1.00 20.00     0.015 C 
HETATM    7  C2  UNL     1     -33.375   8.916   1.149  1.00 20.00     0.006 C 
ENDBRANCH   5   6
ENDBRANCH   3   5
BRANCH   1   8
HETATM    8  C4  UNL     1     -35.204   5.148   3.897  1.00 20.00     0.217 C 
HETATM    9 CL9  UNL     1     -34.816   4.594   5.539  1.00 20.00    -0.121 Cl
ENDBRANCH   1   8
TORSDOF 3
