REMARK  3 active torsions:
REMARK  status: ('A' for Active; 'I' for Inactive)
REMARK    1  A    between atoms: C4_4  and  N9_9 
REMARK    2  A    between atoms: C6_6  and  N9_9 
REMARK    3  A    between atoms: C7_7  and  N9_9 
ROOT
HETATM    1  C1  UNL     1     -33.869   6.510   4.640  1.00 20.00     0.089 C 
HETATM    2  C6  UNL     1     -32.829   7.015   3.747  1.00 20.00     0.396 C 
HETATM    3  N8  UNL     1     -34.694   6.110   5.352  1.00 20.00    -0.195 NA
ENDROOT
BRANCH   2   4
HETATM    4  N9  UNL     1     -33.108   6.646   2.360  1.00 20.00     0.105 N 
BRANCH   4   5
HETATM    5  C4  UNL     1     -32.373   7.515   1.441  1.00 20.00     0.224 A 
HETATM    6  C2  UNL     1     -32.809   7.651   0.009  1.00 20.00     0.038 A 
HETATM    7  C3  UNL     1     -32.980   8.802   0.956  1.00 20.00     0.038 A 
ENDBRANCH   4   5
BRANCH   4   8
HETATM    8  C7  UNL     1     -32.764   5.245   2.124  1.00 20.00     0.269 C 
HETATM    9  C5  UNL     1     -33.505   4.345   3.053  1.00 20.00     0.037 C 
ENDBRANCH   4   8
ENDBRANCH   2   4
TORSDOF 3
