REMARK  0 active torsions:
REMARK  status: ('A' for Active; 'I' for Inactive)
ROOT
HETATM    1  C1  UNL     1     -33.645   4.798   2.525  1.00 20.00     0.039 A 
HETATM    2  C2  UNL     1     -34.128   4.493   3.799  1.00 20.00     0.022 A 
HETATM    3  C3  UNL     1     -33.853   6.807   4.504  1.00 20.00     0.029 A 
HETATM    4  C4  UNL     1     -33.386   7.097   3.235  1.00 20.00    -0.021 A 
HETATM    5  C5  UNL     1     -33.288   6.107   2.270  1.00 20.00     0.075 A 
HETATM    6  C6  UNL     1     -34.233   5.491   4.782  1.00 20.00     0.011 A 
HETATM    7  C7  UNL     1     -32.866   8.371   2.691  1.00 20.00     0.073 C 
HETATM    8  C8  UNL     1     -32.833   8.004   1.199  1.00 20.00     0.129 C 
HETATM    9  C9  UNL     1     -31.632   8.597   0.479  1.00 20.00     0.040 C 
HETATM   10  O10 UNL     1     -32.790   6.558   1.074  1.00 20.00    -0.345 OA
HETATM   11 BR11 UNL     1     -34.884   5.046   6.501  1.00 20.00    -0.051 Br
ENDROOT
TORSDOF 0
