REMARK  2 active torsions:
REMARK  status: ('A' for Active; 'I' for Inactive)
REMARK    1  A    between atoms: C7_7  and  C12_12 
REMARK    2  A    between atoms: C11_11  and  C12_12 
ROOT
HETATM    1  C1  UNL     1     -33.388   8.178   1.103  1.00 20.00     0.064 C 
HETATM    2  C2  UNL     1     -32.153   7.736   3.208  1.00 20.00     0.019 C 
HETATM    3  C3  UNL     1     -32.259   5.988   1.380  1.00 20.00     0.019 C 
HETATM    4  C4  UNL     1     -33.224   6.977   3.993  1.00 20.00     0.007 C 
HETATM    5  C5  UNL     1     -33.330   5.232   2.170  1.00 20.00     0.007 C 
HETATM    6  C6  UNL     1     -32.227   7.488   1.697  1.00 20.00     0.093 C 
HETATM    7  C7  UNL     1     -33.203   5.477   3.678  1.00 20.00    -0.007 C 
HETATM    8  N13 UNL     1     -34.301   8.721   0.636  1.00 20.00    -0.197 NA
ENDROOT
BRANCH   7   9
HETATM    9  C12 UNL     1     -34.312   4.750   4.437  1.00 20.00    -0.044 C 
HETATM   10  C9  UNL     1     -34.122   4.986   5.949  1.00 20.00     0.015 C 
HETATM   11  C10 UNL     1     -35.675   5.331   4.011  1.00 20.00     0.015 C 
BRANCH   9  12
HETATM   12  C11 UNL     1     -34.232   3.234   4.104  1.00 20.00     0.004 C 
HETATM   13  C8  UNL     1     -35.267   2.340   4.775  1.00 20.00     0.006 C 
ENDBRANCH   9  12
ENDBRANCH   7   9
TORSDOF 2
