REMARK  0 active torsions:
REMARK  status: ('A' for Active; 'I' for Inactive)
ROOT
HETATM    1  C1  UNL     1     -34.214   6.577   5.331  1.00 20.00     0.064 C 
HETATM    2  C2  UNL     1     -34.463   6.594   2.860  1.00 20.00     0.023 C 
HETATM    3  C3  UNL     1     -35.509   4.738   4.247  1.00 20.00     0.028 C 
HETATM    4  C4  UNL     1     -33.854   4.187   2.401  1.00 20.00     0.013 C 
HETATM    5  C5  UNL     1     -35.093   6.216   4.205  1.00 20.00     0.094 C 
HETATM    6  C6  UNL     1     -33.346   5.636   2.423  1.00 20.00    -0.017 C 
HETATM    7  C7  UNL     1     -34.450   3.722   3.748  1.00 20.00    -0.046 C 
HETATM    8  C8  UNL     1     -32.813   6.034   1.045  1.00 20.00     0.010 C 
HETATM    9  C9  UNL     1     -35.142   2.358   3.538  1.00 20.00     0.015 C 
HETATM   10  C10 UNL     1     -33.334   3.509   4.790  1.00 20.00     0.015 C 
HETATM   11  N11 UNL     1     -33.522   6.861   6.217  1.00 20.00    -0.197 NA
ENDROOT
TORSDOF 0
