REMARK  6 active torsions:
REMARK  status: ('A' for Active; 'I' for Inactive)
REMARK    1  A    between atoms: C1_1  and  C5_5 
REMARK    2  A    between atoms: C1_1  and  O10_10 
REMARK    3  A    between atoms: C5_5  and  C6_6 
REMARK    4  A    between atoms: C6_6  and  C7_7 
REMARK    5  A    between atoms: C7_7  and  O11_11 
REMARK    6  A    between atoms: C8_8  and  O11_11 
ROOT
HETATM    1  C6  UNL     1     -33.658   6.531   1.663  1.00 20.00     0.036 C 
ENDROOT
BRANCH   1   2
HETATM    2  C5  UNL     1     -32.503   7.515   1.501  1.00 20.00     0.113 C 
BRANCH   2   3
HETATM    3  C1  UNL     1     -32.851   8.647   0.562  1.00 20.00     0.258 C 
HETATM    4  O9  UNL     1     -32.875   9.832   0.864  1.00 20.00    -0.265 OA
BRANCH   3   5
HETATM    5  O10 UNL     1     -33.130   8.129  -0.671  1.00 20.00    -0.326 OA
HETATM    6  C4  UNL     1     -33.479   9.086  -1.677  1.00 20.00     0.213 C 
ENDBRANCH   3   5
ENDBRANCH   2   3
ENDBRANCH   1   2
BRANCH   1   7
HETATM    7  C7  UNL     1     -33.283   5.369   2.571  1.00 20.00     0.168 C 
BRANCH   7   8
HETATM    8  O11 UNL     1     -32.951   5.877   3.855  1.00 20.00    -0.387 OA
BRANCH   8   9
HETATM    9  C8  UNL     1     -34.114   6.163   4.621  1.00 20.00     0.113 C 
HETATM   10  C2  UNL     1     -34.651   4.871   5.218  1.00 20.00     0.039 C 
HETATM   11  C3  UNL     1     -33.769   7.183   5.695  1.00 20.00     0.039 C 
ENDBRANCH   8   9
ENDBRANCH   7   8
ENDBRANCH   1   7
TORSDOF 6
