REMARK  3 active torsions:
REMARK  status: ('A' for Active; 'I' for Inactive)
REMARK    1  A    between atoms: C5_5  and  C6_6 
REMARK    2  A    between atoms: C6_6  and  C7_7 
REMARK    3  A    between atoms: C7_7  and  N9_9 
ROOT
HETATM    1  C1  UNL     1     -33.384   5.535   2.972  1.00 20.00     0.095 C 
HETATM    2  C7  UNL     1     -33.610   6.714   3.824  1.00 20.00     0.327 C 
HETATM    3  N8  UNL     1     -33.210   4.605   2.299  1.00 20.00    -0.195 NA
ENDROOT
BRANCH   2   4
HETATM    4  C6  UNL     1     -32.408   7.675   3.793  1.00 20.00     0.050 C 
BRANCH   4   5
HETATM    5  C5  UNL     1     -31.729   7.816   2.423  1.00 20.00    -0.001 C 
HETATM    6  C2  UNL     1     -32.688   8.390   1.390  1.00 20.00     0.005 C 
ENDBRANCH   4   5
ENDBRANCH   2   4
BRANCH   2   7
HETATM    7  N9  UNL     1     -33.919   6.302   5.192  1.00 20.00     0.098 N 
HETATM    8  C3  UNL     1     -35.125   5.474   5.218  1.00 20.00     0.311 C 
HETATM    9  C4  UNL     1     -34.086   7.473   6.053  1.00 20.00     0.311 C 
ENDBRANCH   2   7
TORSDOF 3
