REMARK  4 active torsions:
REMARK  status: ('A' for Active; 'I' for Inactive)
REMARK    1  A    between atoms: C1_1  and  C8_8 
REMARK    2  A    between atoms: C4_4  and  C7_7 
REMARK    3  A    between atoms: C7_7  and  O10_10 
REMARK    4  A    between atoms: C8_8  and  O10_10 
ROOT
HETATM    1  C6  UNL     1     -33.283   4.372   3.488  1.00 20.00     0.048 C 
HETATM    2  C8  UNL     1     -33.921   5.737   3.674  1.00 20.00     0.186 C 
ENDROOT
BRANCH   2   3
HETATM    3  C1  UNL     1     -34.157   6.047   5.145  1.00 20.00     0.151 C 
HETATM    4  C5  UNL     1     -35.103   5.143   5.894  1.00 20.00     0.093 C 
HETATM    5  O9  UNL     1     -33.610   6.994   5.711  1.00 20.00    -0.296 OA
ENDBRANCH   2   3
BRANCH   2   6
HETATM    6  O10 UNL     1     -33.046   6.712   3.128  1.00 20.00    -0.378 OA
BRANCH   6   7
HETATM    7  C7  UNL     1     -33.140   6.765   1.710  1.00 20.00     0.173 C 
BRANCH   7   8
HETATM    8  C4  UNL     1     -32.599   8.095   1.229  1.00 20.00     0.009 A 
HETATM    9  C2  UNL     1     -32.961   8.612  -0.135  1.00 20.00     0.007 A 
HETATM   10  C3  UNL     1     -33.514   9.280   1.092  1.00 20.00     0.007 A 
ENDBRANCH   7   8
ENDBRANCH   6   7
ENDBRANCH   2   6
TORSDOF 4
