REMARK  3 active torsions:
REMARK  status: ('A' for Active; 'I' for Inactive)
REMARK    1  A    between atoms: C6_6  and  C8_8 
REMARK    2  A    between atoms: C7_7  and  C8_8 
REMARK    3  A    between atoms: C8_8  and  N10_10 
ROOT
HETATM    1  C1  UNL     1     -35.803   6.018   4.371  1.00 20.00     0.102 C 
HETATM    2  C8  UNL     1     -34.327   5.929   4.312  1.00 20.00     0.244 C 
HETATM    3  N9  UNL     1     -36.960   6.087   4.416  1.00 20.00    -0.194 NA
ENDROOT
BRANCH   2   4
HETATM    4  C6  UNL     1     -33.770   7.056   3.402  1.00 20.00     0.053 C 
HETATM    5  C2  UNL     1     -32.249   7.073   3.258  1.00 20.00     0.009 C 
ENDBRANCH   2   4
BRANCH   2   6
HETATM    6  C7  UNL     1     -33.901   4.565   3.711  1.00 20.00     0.053 C 
HETATM    7  C3  UNL     1     -34.404   4.297   2.294  1.00 20.00     0.009 C 
ENDBRANCH   2   6
BRANCH   2   8
HETATM    8  N10 UNL     1     -33.782   6.065   5.649  1.00 20.00     0.103 N 
HETATM    9  C4  UNL     1     -34.285   5.004   6.529  1.00 20.00     0.311 C 
HETATM   10  C5  UNL     1     -34.105   7.379   6.214  1.00 20.00     0.311 C 
ENDBRANCH   2   8
TORSDOF 3
