REMARK  3 active torsions:
REMARK  status: ('A' for Active; 'I' for Inactive)
REMARK    1  A    between atoms: C5_5  and  C6_6 
REMARK    2  A    between atoms: C6_6  and  C7_7 
REMARK    3  A    between atoms: C7_7  and  N9_9 
ROOT
HETATM    1  C1  UNL     1     -32.959   5.390   3.009  1.00 20.00     0.095 C 
HETATM    2  C7  UNL     1     -33.460   6.691   3.483  1.00 20.00     0.327 C 
HETATM    3  N8  UNL     1     -32.568   4.363   2.636  1.00 20.00    -0.195 NA
ENDROOT
BRANCH   2   4
HETATM    4  C6  UNL     1     -33.359   6.811   5.015  1.00 20.00     0.050 C 
BRANCH   4   5
HETATM    5  C5  UNL     1     -34.507   6.152   5.792  1.00 20.00    -0.001 C 
HETATM    6  C2  UNL     1     -34.552   4.652   5.542  1.00 20.00     0.005 C 
ENDBRANCH   4   5
ENDBRANCH   2   4
BRANCH   2   7
HETATM    7  N9  UNL     1     -32.753   7.783   2.817  1.00 20.00     0.098 N 
HETATM    8  C3  UNL     1     -32.948   7.710   1.369  1.00 20.00     0.311 C 
HETATM    9  C4  UNL     1     -31.328   7.744   3.143  1.00 20.00     0.311 C 
ENDBRANCH   2   7
TORSDOF 3
