REMARK  4 active torsions:
REMARK  status: ('A' for Active; 'I' for Inactive)
REMARK    1  A    between atoms: C1_1  and  C8_8 
REMARK    2  A    between atoms: C7_7  and  N10_10 
REMARK    3  A    between atoms: C8_8  and  N10_10 
REMARK    4  A    between atoms: C9_9  and  N10_10 
ROOT
HETATM    1  N10 UNL     1     -33.829   5.957   4.437  1.00 20.00     0.103 N 
ENDROOT
BRANCH   1   2
HETATM    2  C7  UNL     1     -34.413   6.150   5.774  1.00 20.00     0.269 C 
HETATM    3  C3  UNL     1     -34.603   4.846   6.471  1.00 20.00     0.037 C 
ENDBRANCH   1   2
BRANCH   1   4
HETATM    4  C8  UNL     1     -33.644   7.213   3.761  1.00 20.00     0.287 C 
HETATM    5  C4  UNL     1     -33.183   8.304   4.710  1.00 20.00     0.051 C 
BRANCH   4   6
HETATM    6  C1  UNL     1     -32.619   6.989   2.661  1.00 20.00     0.155 C 
HETATM    7  C2  UNL     1     -32.810   7.777   1.391  1.00 20.00     0.093 C 
HETATM    8  O11 UNL     1     -31.652   6.240   2.802  1.00 20.00    -0.296 OA
ENDBRANCH   4   6
ENDBRANCH   1   4
BRANCH   1   9
HETATM    9  C9  UNL     1     -34.683   5.049   3.655  1.00 20.00     0.216 C 
HETATM   10  C5  UNL     1     -34.072   4.856   2.275  1.00 20.00     0.042 C 
HETATM   11  C6  UNL     1     -36.084   5.637   3.574  1.00 20.00     0.042 C 
ENDBRANCH   1   9
TORSDOF 4
