REMARK  3 active torsions:
REMARK  status: ('A' for Active; 'I' for Inactive)
REMARK    1  A    between atoms: C1_1  and  C4_4 
REMARK    2  A    between atoms: C1_1  and  C7_7 
REMARK    3  A    between atoms: C7_7  and  C8_8 
ROOT
HETATM    1  C1  UNL     1     -33.062   6.208   2.514  1.00 20.00     0.131 C 
HETATM    2  O9  UNL     1     -33.596   5.199   2.058  1.00 20.00    -0.298 OA
ENDROOT
BRANCH   1   3
HETATM    3  C4  UNL     1     -32.125   7.036   1.674  1.00 20.00     0.055 A 
HETATM    4  C2  UNL     1     -32.709   8.101   0.818  1.00 20.00     0.013 A 
HETATM    5  C3  UNL     1     -31.929   8.461   2.047  1.00 20.00     0.013 A 
ENDBRANCH   1   3
BRANCH   1   6
HETATM    6  C7  UNL     1     -33.262   6.673   3.949  1.00 20.00     0.082 C 
BRANCH   6   7
HETATM    7  C8  UNL     1     -34.250   5.811   4.748  1.00 20.00    -0.016 C 
HETATM    8  C5  UNL     1     -35.639   5.809   4.104  1.00 20.00     0.010 C 
HETATM    9  C6  UNL     1     -34.350   6.325   6.186  1.00 20.00     0.010 C 
ENDBRANCH   6   7
ENDBRANCH   1   6
TORSDOF 3
