REMARK  4 active torsions:
REMARK  status: ('A' for Active; 'I' for Inactive)
REMARK    1  A    between atoms: C3_3  and  C7_7 
REMARK    2  A    between atoms: C5_5  and  C6_6 
REMARK    3  A    between atoms: C6_6  and  C7_7 
REMARK    4  A    between atoms: C7_7  and  O8_8 
ROOT
HETATM    1  C7  UNL     1     -34.276   6.195   3.322  1.00 20.00     0.122 C 
ENDROOT
BRANCH   1   2
HETATM    2  C3  UNL     1     -35.133   5.750   4.499  1.00 20.00     0.014 A 
HETATM    3  C1  UNL     1     -34.572   4.812   5.533  1.00 20.00     0.007 A 
HETATM    4  C2  UNL     1     -34.832   6.250   5.885  1.00 20.00     0.007 A 
ENDBRANCH   1   2
BRANCH   1   5
HETATM    5  C6  UNL     1     -32.996   6.895   3.790  1.00 20.00     0.032 C 
BRANCH   5   6
HETATM    6  C5  UNL     1     -32.145   7.385   2.615  1.00 20.00    -0.002 C 
HETATM    7  C4  UNL     1     -32.922   8.345   1.728  1.00 20.00     0.005 C 
ENDBRANCH   5   6
ENDBRANCH   1   5
BRANCH   1   8
HETATM    8  O8  UNL     1     -33.948   5.051   2.537  1.00 20.00    -0.395 OA
HETATM    9  H22 UNL     1     -33.405   5.368   1.799  1.00 20.00     0.210 HD
ENDBRANCH   1   8
TORSDOF 4
