REMARK  5 active torsions:
REMARK  status: ('A' for Active; 'I' for Inactive)
REMARK    1  A    between atoms: C4_4  and  C6_6 
REMARK    2  A    between atoms: C4_4  and  C7_7 
REMARK    3  A    between atoms: C5_5  and  C8_8 
REMARK    4  A    between atoms: C5_5  and  N9_9 
REMARK    5  A    between atoms: C7_7  and  N9_9 
ROOT
HETATM    1  C3  UNL     1     -32.581   4.719   2.164  1.00 20.00     0.042 C 
HETATM    2  C7  UNL     1     -33.889   5.343   2.642  1.00 20.00     0.217 C 
ENDROOT
BRANCH   2   3
HETATM    3  C4  UNL     1     -34.185   6.641   1.875  1.00 20.00     0.039 C 
BRANCH   3   4
HETATM    4  C6  UNL     1     -32.951   7.514   1.567  1.00 20.00    -0.021 C 
HETATM    5  C1  UNL     1     -32.272   7.928   2.877  1.00 20.00     0.009 C 
HETATM    6  C2  UNL     1     -33.304   8.761   0.755  1.00 20.00     0.009 C 
ENDBRANCH   3   4
ENDBRANCH   2   3
BRANCH   2   7
HETATM    7  N9  UNL     1     -33.786   5.616   4.060  1.00 20.00     0.092 N 
HETATM    8  H28 UNL     1     -33.298   4.846   4.524  1.00 20.00     0.316 HD
BRANCH   7   9
HETATM    9  C5  UNL     1     -35.104   5.773   4.667  1.00 20.00     0.340 C 
BRANCH   9  10
HETATM   10  C8  UNL     1     -34.977   6.072   6.146  1.00 20.00     0.381 C 
HETATM   11  F10 UNL     1     -34.231   7.190   6.329  1.00 20.00    -0.213 F 
HETATM   12  F11 UNL     1     -34.304   5.058   6.748  1.00 20.00    -0.213 F 
ENDBRANCH   9  10
ENDBRANCH   7   9
ENDBRANCH   2   7
TORSDOF 5
