REMARK  1 active torsions:
REMARK  status: ('A' for Active; 'I' for Inactive)
REMARK    1  A    between atoms: C2_2  and  C3_3 
ROOT
HETATM    1  C1  UNL     1     -33.258   6.793   3.289  1.00 20.00     0.064 C 
HETATM    2  C2  UNL     1     -33.910   6.984   4.591  1.00 20.00     0.194 C 
HETATM    3  N4  UNL     1     -32.742   6.644   2.260  1.00 20.00    -0.197 NA
ENDROOT
BRANCH   2   4
HETATM    4  C3  UNL     1     -34.328   5.660   5.202  1.00 20.00     0.366 C 
HETATM    5  F5  UNL     1     -35.216   5.028   4.396  1.00 20.00    -0.213 F 
HETATM    6  F6  UNL     1     -34.944   5.864   6.393  1.00 20.00    -0.213 F 
ENDBRANCH   2   4
TORSDOF 1
