REMARK  1 active torsions:
REMARK  status: ('A' for Active; 'I' for Inactive)
REMARK    1  A    between atoms: C3_3  and  C6_6 
ROOT
HETATM    1  C1  UNL     1     -32.965   5.614   2.320  1.00 20.00     0.019 A 
HETATM    2  C2  UNL     1     -33.576   4.836   3.346  1.00 20.00     0.028 A 
HETATM    3  C3  UNL     1     -32.999   6.962   2.604  1.00 20.00     0.015 A 
HETATM    4  C4  UNL     1     -34.053   5.619   4.375  1.00 20.00     0.051 A 
HETATM    5  S8  UNL     1     -33.764   7.284   4.102  1.00 20.00    -0.085 SA
HETATM    6 BR9  UNL     1     -34.925   4.945   5.922  1.00 20.00    -0.043 Br
ENDROOT
BRANCH   3   7
HETATM    7  C6  UNL     1     -32.420   8.049   1.694  1.00 20.00     0.185 A 
HETATM    8  C5  UNL     1     -33.354   8.772   0.745  1.00 20.00     0.206 A 
HETATM    9  O7  UNL     1     -32.332   7.898   0.261  1.00 20.00    -0.376 OA
ENDBRANCH   3   7
TORSDOF 1
