REMARK  2 active torsions:
REMARK  status: ('A' for Active; 'I' for Inactive)
REMARK    1  A    between atoms: C7_7  and  C10_10 
REMARK    2  A    between atoms: C8_8  and  C9_9 
ROOT
HETATM    1  C1  UNL     1     -33.538   5.870   2.092  1.00 20.00    -0.019 A 
HETATM    2  C3  UNL     1     -32.899   7.042   1.980  1.00 20.00    -0.087 A 
HETATM    3  C5  UNL     1     -32.405   7.567   3.296  1.00 20.00     0.039 A 
HETATM    4  C8  UNL     1     -33.590   5.390   3.503  1.00 20.00     0.021 A 
HETATM    5  C10 UNL     1     -32.863   6.515   4.311  1.00 20.00     0.005 A 
HETATM    6  C11 UNL     1     -32.667   7.803   0.725  1.00 20.00     0.043 C 
ENDROOT
BRANCH   4   7
HETATM    7  C9  UNL     1     -34.977   5.311   4.195  1.00 20.00     0.022 C 
HETATM    8  C4  UNL     1     -35.754   6.593   3.971  1.00 20.00    -0.082 C 
HETATM    9  C2  UNL     1     -35.131   7.563   4.658  1.00 20.00    -0.019 C 
HETATM   10  C12 UNL     1     -36.949   6.680   3.102  1.00 20.00     0.043 C 
HETATM   11  C7  UNL     1     -33.942   6.933   5.346  1.00 20.00     0.014 C 
HETATM   12  C6  UNL     1     -34.567   5.562   5.655  1.00 20.00     0.018 C 
ENDBRANCH   4   7
TORSDOF 2
