REMARK  2 active torsions:
REMARK  status: ('A' for Active; 'I' for Inactive)
REMARK    1  A    between atoms: C1_1  and  C4_4 
REMARK    2  A    between atoms: C4_4  and  N5_5 
ROOT
HETATM    1  C4  UNL     1     -34.013   6.301   3.540  1.00 20.00     0.367 C 
ENDROOT
BRANCH   1   2
HETATM    2  C1  UNL     1     -34.182   5.649   4.897  1.00 20.00     0.247 C 
HETATM    3  O6  UNL     1     -34.755   4.578   5.069  1.00 20.00    -0.278 OA
HETATM    4 CL7  UNL     1     -33.459   6.617   6.155  1.00 20.00    -0.042 Cl
ENDBRANCH   1   2
BRANCH   1   5
HETATM    5  N5  UNL     1     -32.767   5.833   2.933  1.00 20.00     0.088 N 
HETATM    6  C2  UNL     1     -32.331   6.755   1.885  1.00 20.00     0.310 C 
HETATM    7  C3  UNL     1     -32.937   4.486   2.390  1.00 20.00     0.310 C 
ENDBRANCH   1   5
TORSDOF 2
