REMARK  1 active torsions:
REMARK  status: ('A' for Active; 'I' for Inactive)
REMARK    1  A    between atoms: C2_2  and  C3_3 
ROOT
HETATM    1  C1  UNL     1     -33.308   5.921   3.312  1.00 20.00    -0.077 C 
HETATM    2  C2  UNL     1     -33.161   6.223   2.014  1.00 20.00     0.044 C 
HETATM    3  C4  UNL     1     -33.895   4.614   3.777  1.00 20.00     0.034 C 
HETATM    4  C5  UNL     1     -32.919   6.874   4.412  1.00 20.00     0.034 C 
HETATM    5  C6  UNL     1     -35.061   4.855   4.738  1.00 20.00     0.004 C 
HETATM    6  C7  UNL     1     -34.090   7.104   5.369  1.00 20.00     0.004 C 
HETATM    7  C8  UNL     1     -34.669   5.786   5.887  1.00 20.00     0.001 C 
ENDROOT
BRANCH   2   8
HETATM    8  C3  UNL     1     -32.574   7.532   1.681  1.00 20.00     0.259 C 
HETATM    9  O9  UNL     1     -33.180   8.368   1.021  1.00 20.00    -0.302 OA
ENDBRANCH   2   8
TORSDOF 1
