REMARK  1 active torsions:
REMARK  status: ('A' for Active; 'I' for Inactive)
REMARK    1  A    between atoms: C7_7  and  C8_8 
ROOT
HETATM    1  C1  UNL     1     -32.905   7.759   1.916  1.00 20.00     0.066 C 
HETATM    2  C4  UNL     1     -33.124   5.295   2.055  1.00 20.00     0.048 C 
HETATM    3  C5  UNL     1     -33.653   4.392   3.144  1.00 20.00     0.169 C 
HETATM    4  C6  UNL     1     -32.901   6.592   2.804  1.00 20.00     0.124 C 
HETATM    5  C8  UNL     1     -34.068   6.596   3.794  1.00 20.00     0.143 C 
HETATM    6  N9  UNL     1     -32.909   8.682   1.214  1.00 20.00    -0.197 NA
HETATM    7  O10 UNL     1     -34.458   5.221   3.989  1.00 20.00    -0.384 OA
ENDROOT
BRANCH   5   8
HETATM    8  C7  UNL     1     -33.711   7.201   5.118  1.00 20.00     0.016 A 
HETATM    9  C2  UNL     1     -34.479   6.823   6.354  1.00 20.00     0.007 A 
HETATM   10  C3  UNL     1     -33.059   6.362   6.181  1.00 20.00     0.007 A 
ENDBRANCH   5   8
TORSDOF 1
