REMARK  2 active torsions:
REMARK  status: ('A' for Active; 'I' for Inactive)
REMARK    1  A    between atoms: C2_2  and  C3_3 
REMARK    2  A    between atoms: C3_3  and  O11_11 
ROOT
HETATM    1  C1  UNL     1     -33.659   5.875   3.120  1.00 20.00    -0.074 C 
HETATM    2  C2  UNL     1     -32.737   6.033   2.159  1.00 20.00     0.085 C 
HETATM    3  C4  UNL     1     -34.193   4.522   3.512  1.00 20.00     0.034 C 
HETATM    4  C5  UNL     1     -34.218   7.034   3.903  1.00 20.00     0.034 C 
HETATM    5  C6  UNL     1     -34.044   4.296   5.017  1.00 20.00     0.004 C 
HETATM    6  C7  UNL     1     -34.070   6.795   5.406  1.00 20.00     0.004 C 
HETATM    7  C8  UNL     1     -34.649   5.444   5.828  1.00 20.00     0.001 C 
ENDROOT
BRANCH   2   8
HETATM    8  C3  UNL     1     -32.254   7.385   1.821  1.00 20.00     0.282 C 
HETATM    9  O10 UNL     1     -31.299   7.947   2.335  1.00 20.00    -0.260 OA
BRANCH   8  10
HETATM   10  O11 UNL     1     -33.061   7.874   0.841  1.00 20.00    -0.323 OA
HETATM   11  C9  UNL     1     -32.739   9.190   0.379  1.00 20.00     0.213 C 
ENDBRANCH   8  10
ENDBRANCH   2   8
TORSDOF 2
