REMARK  0 active torsions:
REMARK  status: ('A' for Active; 'I' for Inactive)
ROOT
HETATM    1  C1  UNL     1     -33.070   9.385   1.227  1.00 20.00     0.015 C 
HETATM    2  C2  UNL     1     -32.835   8.229   1.445  1.00 20.00    -0.082 C 
HETATM    3  C3  UNL     1     -34.970   5.135   4.624  1.00 20.00     0.000 C 
HETATM    4  C4  UNL     1     -34.792   6.647   4.471  1.00 20.00     0.003 C 
HETATM    5  C5  UNL     1     -34.388   4.374   3.430  1.00 20.00     0.003 C 
HETATM    6  C6  UNL     1     -33.327   7.016   4.237  1.00 20.00     0.042 C 
HETATM    7  C7  UNL     1     -32.924   4.742   3.192  1.00 20.00     0.042 C 
HETATM    8  C8  UNL     1     -32.554   6.852   1.704  1.00 20.00     0.235 A 
HETATM    9  C9  UNL     1     -32.784   6.234   3.072  1.00 20.00     0.099 A 
HETATM   10  O10 UNL     1     -31.485   6.662   2.644  1.00 20.00    -0.356 OA
ENDROOT
TORSDOF 0
