REMARK  3 active torsions:
REMARK  status: ('A' for Active; 'I' for Inactive)
REMARK    1  A    between atoms: C2_2  and  C8_8 
REMARK    2  A    between atoms: C6_6  and  C7_7 
REMARK    3  A    between atoms: C6_6  and  C8_8 
ROOT
HETATM    1  C1  UNL     1     -32.836   8.330   1.711  1.00 20.00     0.063 C 
HETATM    2  C4  UNL     1     -32.949   5.880   1.613  1.00 20.00     0.025 C 
HETATM    3  C7  UNL     1     -32.220   7.086   2.210  1.00 20.00     0.089 C 
HETATM    4  N9  UNL     1     -33.319   9.310   1.318  1.00 20.00    -0.197 NA
ENDROOT
BRANCH   3   5
HETATM    5  C6  UNL     1     -32.261   7.019   3.750  1.00 20.00     0.030 C 
BRANCH   5   6
HETATM    6  C8  UNL     1     -33.683   7.010   4.343  1.00 20.00     0.052 C 
HETATM    7  C5  UNL     1     -33.655   7.403   5.819  1.00 20.00     0.018 C 
BRANCH   6   8
HETATM    8  C2  UNL     1     -34.336   5.637   4.223  1.00 20.00     0.127 C 
HETATM    9  C3  UNL     1     -35.838   5.610   4.098  1.00 20.00     0.091 C 
HETATM   10  O10 UNL     1     -33.685   4.593   4.260  1.00 20.00    -0.298 OA
ENDBRANCH   6   8
ENDBRANCH   5   6
ENDBRANCH   3   5
TORSDOF 3
