REMARK  0 active torsions:
REMARK  status: ('A' for Active; 'I' for Inactive)
ROOT
HETATM    1  C1  UNL     1     -33.978   6.635   4.093  1.00 20.00     0.092 C 
HETATM    2  C2  UNL     1     -33.437   4.749   2.131  1.00 20.00     0.023 C 
HETATM    3  C3  UNL     1     -33.739   4.193   3.512  1.00 20.00     0.016 C 
HETATM    4  C4  UNL     1     -32.581   5.996   2.274  1.00 20.00     0.148 C 
HETATM    5  C5  UNL     1     -34.486   5.229   4.362  1.00 20.00    -0.014 C 
HETATM    6  C6  UNL     1     -34.294   4.920   5.852  1.00 20.00     0.020 C 
HETATM    7  C7  UNL     1     -35.988   5.223   4.036  1.00 20.00     0.020 C 
HETATM    8  N8  UNL     1     -33.160   6.996   3.167  1.00 20.00    -0.305 NA
ENDROOT
TORSDOF 0
