REMARK  3 active torsions:
REMARK  status: ('A' for Active; 'I' for Inactive)
REMARK    1  A    between atoms: C1_1  and  C4_4 
REMARK    2  A    between atoms: C2_2  and  C9_9 
REMARK    3  A    between atoms: C9_9  and  O10_10 
ROOT
HETATM    1  C3  UNL     1     -35.014   5.161   4.292  1.00 20.00    -0.011 C 
HETATM    2  C4  UNL     1     -33.997   6.029   4.324  1.00 20.00    -0.008 C 
HETATM    3  C5  UNL     1     -35.456   4.778   5.665  1.00 20.00     0.028 C 
HETATM    4  C6  UNL     1     -33.598   6.364   5.725  1.00 20.00     0.048 C 
HETATM    5  C7  UNL     1     -34.314   5.290   6.543  1.00 20.00     0.009 C 
ENDROOT
BRANCH   2   6
HETATM    6  C1  UNL     1     -33.388   6.574   3.170  1.00 20.00    -0.069 C 
HETATM    7  C2  UNL     1     -32.872   7.037   2.189  1.00 20.00    -0.075 C 
BRANCH   7   8
HETATM    8  C9  UNL     1     -32.242   7.598   0.995  1.00 20.00     0.261 C 
BRANCH   8   9
HETATM    9  O10 UNL     1     -32.728   8.914   0.771  1.00 20.00    -0.384 OA
HETATM   10  C8  UNL     1     -32.140   9.499  -0.384  1.00 20.00     0.202 C 
ENDBRANCH   8   9
ENDBRANCH   7   8
ENDBRANCH   2   6
TORSDOF 3
