REMARK  1 active torsions:
REMARK  status: ('A' for Active; 'I' for Inactive)
REMARK    1  A    between atoms: C3_3  and  C6_6 
ROOT
HETATM    1  C1  UNL     1     -32.703   7.907   1.409  1.00 20.00    -0.154 C 
HETATM    2  C5  UNL     1     -33.110   9.058   0.968  1.00 20.00     0.096 C 
HETATM    3  C6  UNL     1     -32.290   6.756   1.846  1.00 20.00     0.058 C 
ENDROOT
BRANCH   3   4
HETATM    4  C3  UNL     1     -33.024   6.003   2.821  1.00 20.00    -0.041 A 
HETATM    5  C2  UNL     1     -33.657   6.497   3.893  1.00 20.00    -0.009 A 
HETATM    6  C4  UNL     1     -34.252   5.327   4.571  1.00 20.00     0.156 A 
HETATM    7  C9  UNL     1     -33.816   7.874   4.417  1.00 20.00     0.052 C 
HETATM    8  C8  UNL     1     -33.950   4.047   3.849  1.00 20.00     0.088 A 
HETATM    9  O10 UNL     1     -34.911   5.402   5.598  1.00 20.00    -0.293 OA
HETATM   10  C7  UNL     1     -33.117   4.514   2.663  1.00 20.00     0.047 A 
ENDBRANCH   3   4
TORSDOF 1
