REMARK  2 active torsions:
REMARK  status: ('A' for Active; 'I' for Inactive)
REMARK    1  A    between atoms: C4_4  and  O6_6 
REMARK    2  A    between atoms: C4_4  and  O7_7 
ROOT
HETATM    1  C1  UNL     1     -33.128   6.607   3.627  1.00 20.00     0.120 C 
HETATM    2  C4  UNL     1     -34.389   5.854   3.550  1.00 20.00     0.369 C 
HETATM    3  N5  UNL     1     -32.134   7.202   3.688  1.00 20.00    -0.192 NA
ENDROOT
BRANCH   2   4
HETATM    4  O6  UNL     1     -35.083   5.957   4.798  1.00 20.00    -0.354 OA
HETATM    5  C2  UNL     1     -34.576   5.067   5.785  1.00 20.00     0.206 C 
ENDBRANCH   2   4
BRANCH   2   6
HETATM    6  O7  UNL     1     -34.069   4.489   3.256  1.00 20.00    -0.354 OA
HETATM    7  C3  UNL     1     -33.375   4.351   2.023  1.00 20.00     0.206 C 
ENDBRANCH   2   6
TORSDOF 2
