REMARK  2 active torsions:
REMARK  status: ('A' for Active; 'I' for Inactive)
REMARK    1  A    between atoms: C6_6  and  C7_7 
REMARK    2  A    between atoms: C7_7  and  N8_8 
ROOT
HETATM    1  C7  UNL     1     -33.678   6.766   4.632  1.00 20.00     0.443 C 
HETATM    2  F9  UNL     1     -34.791   7.477   4.275  1.00 20.00    -0.172 F 
HETATM    3  F10 UNL     1     -33.429   7.128   5.924  1.00 20.00    -0.172 F 
ENDROOT
BRANCH   1   4
HETATM    4  C6  UNL     1     -34.057   5.258   4.591  1.00 20.00     0.046 C 
HETATM    5  C1  UNL     1     -32.841   4.363   4.301  1.00 20.00     0.023 C 
HETATM    6  C2  UNL     1     -34.634   4.853   5.963  1.00 20.00     0.023 C 
HETATM    7  C3  UNL     1     -35.134   5.001   3.519  1.00 20.00     0.023 C 
ENDBRANCH   1   4
BRANCH   1   8
HETATM    8  N8  UNL     1     -32.542   7.126   3.764  1.00 20.00     0.152 N 
HETATM    9  C4  UNL     1     -32.940   7.278   2.364  1.00 20.00     0.317 C 
HETATM   10  C5  UNL     1     -31.859   8.343   4.209  1.00 20.00     0.317 C 
ENDBRANCH   1   8
TORSDOF 2
