REMARK  0 active torsions:
REMARK  status: ('A' for Active; 'I' for Inactive)
ROOT
HETATM    1  C1  UNL     1     -32.800   7.957   0.922  1.00 20.00     0.097 C 
HETATM    2  C2  UNL     1     -33.764   5.363   5.451  1.00 20.00     0.008 C 
HETATM    3  C3  UNL     1     -33.015   6.454   5.677  1.00 20.00     0.029 C 
HETATM    4  C4  UNL     1     -34.028   5.768   3.063  1.00 20.00    -0.004 C 
HETATM    5  C5  UNL     1     -31.487   8.140   2.966  1.00 20.00     0.136 C 
HETATM    6  C6  UNL     1     -32.581   7.749   2.302  1.00 20.00     0.053 C 
HETATM    7  C7  UNL     1     -34.144   4.926   4.110  1.00 20.00    -0.065 C 
HETATM    8  C8  UNL     1     -32.618   7.191   4.463  1.00 20.00     0.047 C 
HETATM    9  C9  UNL     1     -33.560   7.173   3.267  1.00 20.00     0.106 C 
HETATM   10  C10 UNL     1     -34.668   3.529   3.976  1.00 20.00     0.048 C 
HETATM   11  N11 UNL     1     -32.980   8.128  -0.212  1.00 20.00    -0.192 NA
HETATM   12  N12 UNL     1     -31.496   7.821   4.299  1.00 20.00    -0.263 NA
ENDROOT
TORSDOF 0
