REMARK  1 active torsions:
REMARK  status: ('A' for Active; 'I' for Inactive)
REMARK    1  A    between atoms: C4_4  and  C6_6 
ROOT
HETATM    1  C1  UNL     1     -34.220   5.763   6.357  1.00 20.00     0.135 A 
HETATM    2  C2  UNL     1     -34.470   4.928   5.291  1.00 20.00     0.136 A 
HETATM    3  C3  UNL     1     -33.221   7.262   4.948  1.00 20.00     0.149 A 
HETATM    4  C4  UNL     1     -33.470   6.427   3.882  1.00 20.00     0.122 A 
HETATM    5  N7  UNL     1     -33.591   6.946   6.205  1.00 20.00    -0.269 NA
HETATM    6  N8  UNL     1     -34.100   5.245   4.034  1.00 20.00    -0.256 NA
ENDROOT
BRANCH   4   7
HETATM    7  C6  UNL     1     -33.046   6.809   2.507  1.00 20.00     0.285 C 
HETATM    8  C5  UNL     1     -31.796   7.687   2.516  1.00 20.00     0.097 C 
HETATM    9  F9  UNL     1     -34.013   7.499   1.817  1.00 20.00    -0.200 F 
HETATM   10  F10 UNL     1     -32.769   5.728   1.708  1.00 20.00    -0.200 F 
ENDBRANCH   4   7
TORSDOF 1
