REMARK  3 active torsions:
REMARK  status: ('A' for Active; 'I' for Inactive)
REMARK    1  A    between atoms: C6_6  and  C8_8 
REMARK    2  A    between atoms: C7_7  and  O11_11 
REMARK    3  A    between atoms: C9_9  and  C10_10 
ROOT
HETATM    1  C1  UNL     1     -32.957   7.472   3.018  1.00 20.00    -0.023 C 
HETATM    2  C2  UNL     1     -32.893   6.704   1.906  1.00 20.00     0.001 C 
HETATM    3  C6  UNL     1     -33.952   6.846   3.924  1.00 20.00     0.019 C 
HETATM    4  C7  UNL     1     -33.692   5.410   2.075  1.00 20.00     0.145 C 
HETATM    5  C10 UNL     1     -33.633   5.383   3.585  1.00 20.00     0.030 C 
ENDROOT
BRANCH   4   6
HETATM    6  O11 UNL     1     -33.001   4.313   1.513  1.00 20.00    -0.391 OA
HETATM    7  H25 UNL     1     -32.876   4.504   0.567  1.00 20.00     0.210 HD
ENDBRANCH   4   6
BRANCH   5   8
HETATM    8  C9  UNL     1     -34.435   4.608   4.644  1.00 20.00    -0.007 C 
HETATM    9  C4  UNL     1     -33.458   4.464   5.841  1.00 20.00     0.005 C 
HETATM   10  C3  UNL     1     -33.196   5.943   6.231  1.00 20.00     0.005 C 
HETATM   11  C8  UNL     1     -34.251   6.726   5.422  1.00 20.00    -0.006 C 
HETATM   12  C5  UNL     1     -35.367   5.655   5.281  1.00 20.00     0.010 C 
ENDBRANCH   5   8
TORSDOF 3
