REMARK  2 active torsions:
REMARK  status: ('A' for Active; 'I' for Inactive)
REMARK    1  A    between atoms: C1_1  and  C4_4 
REMARK    2  A    between atoms: C2_2  and  C3_3 
ROOT
HETATM    1  C1  UNL     1     -33.236   7.338   3.059  1.00 20.00     0.015 C 
HETATM    2  C3  UNL     1     -33.854   6.207   3.429  1.00 20.00     0.069 C 
HETATM    3 CL6  UNL     1     -34.761   6.026   4.878  1.00 20.00    -0.081 Cl
ENDROOT
BRANCH   2   4
HETATM    4  C2  UNL     1     -33.765   5.029   2.535  1.00 20.00     0.282 C 
HETATM    5  O5  UNL     1     -32.707   4.498   2.220  1.00 20.00    -0.301 OA
ENDBRANCH   2   4
BRANCH   1   6
HETATM    6  C4  UNL     1     -32.442   7.558   1.810  1.00 20.00     0.143 C 
HETATM    7 CL7  UNL     1     -33.185   8.856   0.847  1.00 20.00    -0.126 Cl
ENDBRANCH   1   6
TORSDOF 2
