REMARK  4 active torsions:
REMARK  status: ('A' for Active; 'I' for Inactive)
REMARK    1  A    between atoms: C7_7  and  C9_9 
REMARK    2  A    between atoms: C9_9  and  C11_11 
REMARK    3  A    between atoms: C10_10  and  C12_12 
REMARK    4  A    between atoms: C11_11  and  C12_12 
ROOT
HETATM    1  C1  UNL     1     -33.087   4.270   2.632  1.00 20.00     0.004 C 
HETATM    2  C2  UNL     1     -34.258   4.275   3.614  1.00 20.00     0.008 C 
HETATM    3  C3  UNL     1     -32.270   5.503   2.987  1.00 20.00     0.038 C 
HETATM    4  C4  UNL     1     -34.033   5.924   5.562  1.00 20.00     0.034 C 
HETATM    5  C5  UNL     1     -33.488   7.334   5.554  1.00 20.00     0.169 C 
HETATM    6  C6  UNL     1     -34.396   5.718   4.104  1.00 20.00     0.022 C 
HETATM    7  C7  UNL     1     -33.326   6.538   3.377  1.00 20.00     0.064 C 
HETATM    8  O13 UNL     1     -32.781   7.477   4.314  1.00 20.00    -0.380 OA
ENDROOT
BRANCH   7   9
HETATM    9  C9  UNL     1     -33.874   7.300   2.175  1.00 20.00     0.038 C 
BRANCH   9  10
HETATM   10  C11 UNL     1     -32.907   8.390   1.715  1.00 20.00     0.003 C 
BRANCH  10  11
HETATM   11  C12 UNL     1     -33.475   9.173   0.531  1.00 20.00    -0.000 C 
BRANCH  11  12
HETATM   12  C10 UNL     1     -33.772   8.253  -0.653  1.00 20.00    -0.005 C 
HETATM   13  C8  UNL     1     -32.512   7.568  -1.157  1.00 20.00     0.005 C 
ENDBRANCH  11  12
ENDBRANCH  10  11
ENDBRANCH   9  10
ENDBRANCH   7   9
TORSDOF 4
