REMARK  3 active torsions:
REMARK  status: ('A' for Active; 'I' for Inactive)
REMARK    1  A    between atoms: C3_3  and  C7_7 
REMARK    2  A    between atoms: C7_7  and  C8_8 
REMARK    3  A    between atoms: C8_8  and  C9_9 
ROOT
HETATM    1  C1  UNL     1     -33.870   5.831   5.553  1.00 20.00     0.088 C 
HETATM    2  C2  UNL     1     -33.369   6.746   4.587  1.00 20.00     0.096 C 
HETATM    3  C3  UNL     1     -33.134   6.428   3.300  1.00 20.00    -0.074 C 
HETATM    4  C4  UNL     1     -33.402   5.031   2.804  1.00 20.00     0.044 C 
HETATM    5  N10 UNL     1     -34.277   5.089   6.347  1.00 20.00    -0.192 NA
ENDROOT
BRANCH   3   6
HETATM    6  C7  UNL     1     -32.575   7.389   2.269  1.00 20.00     0.034 C 
BRANCH   6   7
HETATM    7  C8  UNL     1     -33.507   7.545   1.061  1.00 20.00     0.008 C 
BRANCH   7   8
HETATM    8  C9  UNL     1     -32.998   8.566   0.025  1.00 20.00    -0.023 C 
HETATM    9  C5  UNL     1     -31.632   8.127  -0.507  1.00 20.00     0.009 C 
HETATM   10  C6  UNL     1     -32.898   9.979   0.600  1.00 20.00     0.009 C 
ENDBRANCH   7   8
ENDBRANCH   6   7
ENDBRANCH   3   6
TORSDOF 3
