REMARK  0 active torsions:
REMARK  status: ('A' for Active; 'I' for Inactive)
ROOT
HETATM    1  C1  UNL     1     -35.024   5.148   5.705  1.00 20.00     0.002 C 
HETATM    2  C2  UNL     1     -34.957   4.627   4.469  1.00 20.00     0.030 C 
HETATM    3  C3  UNL     1     -34.296   6.346   6.090  1.00 20.00    -0.001 C 
HETATM    4  C4  UNL     1     -33.767   7.167   5.166  1.00 20.00     0.006 C 
HETATM    5  C5  UNL     1     -32.632   6.027   2.201  1.00 20.00     0.228 C 
HETATM    6  C6  UNL     1     -34.111   5.389   3.538  1.00 20.00     0.064 C 
HETATM    7  C7  UNL     1     -33.962   6.876   3.715  1.00 20.00     0.184 C 
HETATM    8  N8  UNL     1     -32.806   7.144   2.845  1.00 20.00    -0.268 NA
HETATM    9  N9  UNL     1     -33.396   4.944   2.566  1.00 20.00    -0.244 NA
ENDROOT
TORSDOF 0
