REMARK  2 active torsions:
REMARK  status: ('A' for Active; 'I' for Inactive)
REMARK    1  A    between atoms: C1_1  and  C5_5 
REMARK    2  A    between atoms: C1_1  and  C6_6 
ROOT
HETATM    1  C2  UNL     1     -34.019   6.612   6.487  1.00 20.00     0.029 C 
HETATM    2  C3  UNL     1     -33.154   6.888   5.283  1.00 20.00     0.042 C 
HETATM    3  C4  UNL     1     -34.880   5.471   5.998  1.00 20.00     0.168 C 
HETATM    4  C5  UNL     1     -34.107   6.626   4.133  1.00 20.00     0.192 C 
HETATM    5  O8  UNL     1     -35.104   5.710   4.602  1.00 20.00    -0.378 OA
ENDROOT
BRANCH   4   6
HETATM    6  C1  UNL     1     -33.445   5.964   2.971  1.00 20.00     0.169 C 
HETATM    7  O7  UNL     1     -33.765   4.825   2.633  1.00 20.00    -0.294 OA
BRANCH   6   8
HETATM    8  C6  UNL     1     -32.383   6.779   2.269  1.00 20.00     0.195 C 
HETATM    9 CL9  UNL     1     -33.070   8.274   1.617  1.00 20.00    -0.122 Cl
ENDBRANCH   6   8
ENDBRANCH   4   6
TORSDOF 2
