REMARK  1 active torsions:
REMARK  status: ('A' for Active; 'I' for Inactive)
REMARK    1  A    between atoms: C3_3  and  C7_7 
ROOT
HETATM    1  C1  UNL     1     -33.243   7.901   4.694  1.00 20.00    -0.025 C 
HETATM    2  C2  UNL     1     -34.100   8.385   3.782  1.00 20.00    -0.024 C 
HETATM    3  C4  UNL     1     -31.859   6.831   2.996  1.00 20.00     0.021 C 
HETATM    4  C5  UNL     1     -32.796   6.539   4.200  1.00 20.00     0.017 C 
HETATM    5  C6  UNL     1     -34.208   7.347   2.676  1.00 20.00     0.027 C 
HETATM    6  C7  UNL     1     -32.852   7.359   1.916  1.00 20.00     0.056 C 
HETATM    7  C8  UNL     1     -34.105   6.048   3.523  1.00 20.00    -0.033 C 
HETATM    8  C9  UNL     1     -35.288   5.822   4.496  1.00 20.00     0.016 C 
HETATM    9  C10 UNL     1     -33.964   4.745   2.714  1.00 20.00     0.016 C 
ENDROOT
BRANCH   6  10
HETATM   10  C3  UNL     1     -32.473   8.709   1.384  1.00 20.00     0.236 C 
HETATM   11  O11 UNL     1     -33.291   9.538   0.998  1.00 20.00    -0.306 OA
ENDBRANCH   6  10
TORSDOF 1
