REMARK  1 active torsions:
REMARK  status: ('A' for Active; 'I' for Inactive)
REMARK    1  A    between atoms: C7_7  and  N8_8 
ROOT
HETATM    1  C1  UNL     1     -33.077   8.585   0.870  1.00 20.00     0.013 C 
HETATM    2  C2  UNL     1     -32.900   7.530   1.414  1.00 20.00    -0.087 C 
HETATM    3  C7  UNL     1     -32.679   6.241   2.075  1.00 20.00     0.364 C 
ENDROOT
BRANCH   3   4
HETATM    4  N8  UNL     1     -33.617   6.066   3.200  1.00 20.00     0.100 N 
HETATM    5  C3  UNL     1     -33.709   4.634   3.523  1.00 20.00     0.283 C 
HETATM    6  C5  UNL     1     -34.761   4.346   4.592  1.00 20.00     0.104 C 
HETATM    7  S9  UNL     1     -34.360   5.159   6.162  1.00 20.00    -0.166 SA
HETATM    8  C6  UNL     1     -34.119   6.836   5.515  1.00 20.00     0.104 C 
HETATM    9  C4  UNL     1     -33.138   6.853   4.345  1.00 20.00     0.283 C 
ENDBRANCH   3   4
TORSDOF 1
