REMARK  1 active torsions:
REMARK  status: ('A' for Active; 'I' for Inactive)
REMARK    1  A    between atoms: C6_6  and  N12_12 
ROOT
HETATM    1  C1  UNL     1     -33.674   4.411   2.891  1.00 20.00     0.026 A 
HETATM    2  C2  UNL     1     -33.121   5.456   2.180  1.00 20.00     0.097 A 
HETATM    3  C3  UNL     1     -33.987   4.901   4.182  1.00 20.00    -0.034 A 
HETATM    4  C4  UNL     1     -33.619   6.232   4.211  1.00 20.00     0.022 A 
HETATM    5  C7  UNL     1     -34.615   4.220   5.347  1.00 20.00     0.040 C 
HETATM    6  C8  UNL     1     -33.739   7.153   5.371  1.00 20.00     0.058 C 
HETATM    7  C9  UNL     1     -34.417   5.036   6.639  1.00 20.00     0.005 C 
HETATM    8  C10 UNL     1     -34.681   6.539   6.425  1.00 20.00     0.006 C 
HETATM    9  N12 UNL     1     -33.092   6.561   2.994  1.00 20.00    -0.330 N 
ENDROOT
BRANCH   9  10
HETATM   10  C6  UNL     1     -32.608   7.801   2.616  1.00 20.00     0.003 C 
HETATM   11  C5  UNL     1     -32.041   8.687   3.459  1.00 20.00     0.038 C 
HETATM   12  C11 UNL     1     -32.710   8.214   1.162  1.00 20.00     0.068 C 
ENDBRANCH   9  10
TORSDOF 1
