REMARK  0 active torsions:
REMARK  status: ('A' for Active; 'I' for Inactive)
ROOT
HETATM    1  C1  UNL     1     -33.702   5.015   2.138  1.00 20.00     0.011 A 
HETATM    2  C2  UNL     1     -33.075   5.909   1.271  1.00 20.00     0.024 A 
HETATM    3  C3  UNL     1     -32.709   7.438   3.105  1.00 20.00     0.031 A 
HETATM    4  C4  UNL     1     -33.830   5.323   3.498  1.00 20.00    -0.028 A 
HETATM    5  C5  UNL     1     -33.347   6.552   3.980  1.00 20.00    -0.046 A 
HETATM    6  C6  UNL     1     -32.577   7.118   1.753  1.00 20.00     0.034 A 
HETATM    7  C7  UNL     1     -33.459   6.877   5.446  1.00 20.00     0.065 C 
HETATM    8  C8  UNL     1     -34.535   4.368   4.427  1.00 20.00     0.206 C 
HETATM    9  C9  UNL     1     -34.530   6.024   6.115  1.00 20.00     0.172 C 
HETATM   10  O10 UNL     1     -34.292   4.650   5.810  1.00 20.00    -0.386 OA
HETATM   11 CL11 UNL     1     -31.798   8.216   0.682  1.00 20.00    -0.084 Cl
ENDROOT
TORSDOF 0
