REMARK  0 active torsions:
REMARK  status: ('A' for Active; 'I' for Inactive)
ROOT
HETATM    1  C1  UNL     1     -33.202   6.449   2.846  1.00 20.00     0.131 C 
HETATM    2  C2  UNL     1     -33.775   4.569   4.706  1.00 20.00     0.059 C 
HETATM    3  C3  UNL     1     -33.773   4.149   3.251  1.00 20.00     0.179 C 
HETATM    4  C4  UNL     1     -34.372   5.971   4.852  1.00 20.00     0.051 C 
HETATM    5  C5  UNL     1     -32.525   7.349   1.862  1.00 20.00     0.099 C 
HETATM    6  C6  UNL     1     -35.879   5.999   4.561  1.00 20.00     0.040 C 
HETATM    7  C7  UNL     1     -34.129   6.484   6.278  1.00 20.00     0.040 C 
HETATM    8  N8  UNL     1     -33.711   6.906   3.935  1.00 20.00    -0.261 NA
HETATM    9  O9  UNL     1     -33.177   5.159   2.422  1.00 20.00    -0.338 OA
ENDROOT
TORSDOF 0
