REMARK  1 active torsions:
REMARK  status: ('A' for Active; 'I' for Inactive)
REMARK    1  A    between atoms: C4_4  and  C10_10 
ROOT
HETATM    1  C1  UNL     1     -33.880   7.026   4.483  1.00 20.00     0.092 C 
HETATM    2  C2  UNL     1     -33.142   6.043   1.997  1.00 20.00     0.029 C 
HETATM    3  C3  UNL     1     -33.366   4.995   3.076  1.00 20.00     0.016 C 
HETATM    4  C4  UNL     1     -32.417   7.235   2.613  1.00 20.00     0.110 C 
HETATM    5  C5  UNL     1     -34.212   5.567   4.220  1.00 20.00    -0.014 C 
HETATM    6  C6  UNL     1     -35.709   5.503   3.875  1.00 20.00     0.020 C 
HETATM    7  C7  UNL     1     -33.960   4.772   5.507  1.00 20.00     0.020 C 
HETATM    8  N11 UNL     1     -33.120   7.785   3.774  1.00 20.00    -0.299 NA
ENDROOT
BRANCH   4   9
HETATM    9  C10 UNL     1     -32.257   8.356   1.590  1.00 20.00     0.002 C 
HETATM   10  C8  UNL     1     -31.418   7.885   0.403  1.00 20.00     0.011 C 
HETATM   11  C9  UNL     1     -33.622   8.853   1.118  1.00 20.00     0.011 C 
ENDBRANCH   4   9
TORSDOF 1
