REMARK  1 active torsions:
REMARK  status: ('A' for Active; 'I' for Inactive)
REMARK    1  A    between atoms: C3_3  and  C7_7 
ROOT
HETATM    1  C1  UNL     1     -32.974   6.571   4.244  1.00 20.00    -0.020 C 
HETATM    2  C2  UNL     1     -33.963   6.485   5.150  1.00 20.00    -0.086 C 
HETATM    3  C4  UNL     1     -35.172   5.604   4.944  1.00 20.00     0.049 C 
HETATM    4  C5  UNL     1     -34.348   5.251   2.572  1.00 20.00     0.023 C 
HETATM    5  C6  UNL     1     -32.970   5.837   2.928  1.00 20.00     0.005 C 
HETATM    6  C7  UNL     1     -35.050   4.621   3.774  1.00 20.00     0.091 C 
HETATM    7  C8  UNL     1     -33.927   7.259   6.435  1.00 20.00     0.043 C 
HETATM    8  C9  UNL     1     -32.482   6.748   1.800  1.00 20.00     0.014 C 
ENDROOT
BRANCH   6   9
HETATM    9  C3  UNL     1     -34.338   3.366   4.193  1.00 20.00     0.177 C 
HETATM   10  O10 UNL     1     -33.147   3.526   4.579  1.00 20.00    -0.648 OA
HETATM   11  O11 UNL     1     -35.026   2.311   4.104  1.00 20.00    -0.648 OA
ENDBRANCH   6   9
TORSDOF 1
