REMARK  1 active torsions:
REMARK  status: ('A' for Active; 'I' for Inactive)
REMARK    1  A    between atoms: C3_3  and  C7_7 
ROOT
HETATM    1  C1  UNL     1     -33.519   6.403   1.451  1.00 20.00    -0.019 C 
HETATM    2  C2  UNL     1     -33.045   7.653   1.592  1.00 20.00    -0.087 C 
HETATM    3  C4  UNL     1     -32.868   8.292   2.945  1.00 20.00     0.034 C 
HETATM    4  C5  UNL     1     -33.614   7.555   4.058  1.00 20.00     0.017 C 
HETATM    5  C6  UNL     1     -33.879   5.496   2.605  1.00 20.00     0.015 C 
HETATM    6  C7  UNL     1     -33.396   6.045   3.963  1.00 20.00     0.062 C 
HETATM    7  C8  UNL     1     -32.666   8.495   0.410  1.00 20.00     0.043 C 
HETATM    8  C10 UNL     1     -33.309   4.094   2.358  1.00 20.00     0.015 C 
ENDROOT
BRANCH   6   9
HETATM    9  C3  UNL     1     -34.139   5.378   5.083  1.00 20.00     0.127 C 
HETATM   10  C9  UNL     1     -34.347   6.187   6.334  1.00 20.00     0.091 C 
HETATM   11  O11 UNL     1     -34.559   4.226   4.982  1.00 20.00    -0.298 OA
ENDBRANCH   6   9
TORSDOF 1
