REMARK  1 active torsions:
REMARK  status: ('A' for Active; 'I' for Inactive)
REMARK    1  A    between atoms: C1_1  and  C7_7 
ROOT
HETATM    1  C2  UNL     1     -34.118   6.333   5.714  1.00 20.00     0.001 C 
HETATM    2  C3  UNL     1     -32.982   5.616   1.495  1.00 20.00     0.014 C 
HETATM    3  C4  UNL     1     -34.226   5.011   4.964  1.00 20.00     0.005 C 
HETATM    4  C5  UNL     1     -33.237   7.179   4.805  1.00 20.00     0.006 C 
HETATM    5  C6  UNL     1     -33.380   4.607   2.563  1.00 20.00     0.006 C 
HETATM    6  C7  UNL     1     -32.725   6.894   2.292  1.00 20.00     0.076 C 
HETATM    7  C8  UNL     1     -34.284   5.412   3.490  1.00 20.00    -0.010 C 
HETATM    8  C9  UNL     1     -33.773   6.864   3.409  1.00 20.00     0.002 C 
ENDROOT
BRANCH   6   9
HETATM    9  C1  UNL     1     -32.888   8.109   1.435  1.00 20.00     0.223 C 
HETATM   10  O10 UNL     1     -33.735   8.963   1.682  1.00 20.00    -0.279 OA
HETATM   11 CL11 UNL     1     -31.763   8.133   0.112  1.00 20.00    -0.043 Cl
ENDBRANCH   6   9
TORSDOF 1
