REMARK  2 active torsions:
REMARK  status: ('A' for Active; 'I' for Inactive)
REMARK    1  A    between atoms: C3_3  and  C7_7 
REMARK    2  A    between atoms: C8_8  and  C10_10 
ROOT
HETATM    1  C1  UNL     1     -32.012   8.407   0.571  1.00 20.00     0.012 C 
HETATM    2  C2  UNL     1     -32.599   8.198   1.597  1.00 20.00    -0.117 C 
HETATM    3  C10 UNL     1     -33.315   7.948   2.854  1.00 20.00     0.098 C 
ENDROOT
BRANCH   3   4
HETATM    4  C8  UNL     1     -33.986   6.584   2.843  1.00 20.00     0.008 C 
HETATM    5  C6  UNL     1     -33.003   5.431   2.667  1.00 20.00     0.006 C 
HETATM    6  C4  UNL     1     -33.823   4.206   3.050  1.00 20.00     0.001 C 
HETATM    7  C5  UNL     1     -34.853   4.690   4.077  1.00 20.00     0.013 C 
HETATM    8  C7  UNL     1     -34.742   6.216   4.119  1.00 20.00     0.060 C 
BRANCH   8   9
HETATM    9  C3  UNL     1     -34.005   6.571   5.402  1.00 20.00     0.127 C 
HETATM   10  C9  UNL     1     -34.639   6.124   6.692  1.00 20.00     0.091 C 
HETATM   11  O11 UNL     1     -32.943   7.191   5.385  1.00 20.00    -0.298 OA
ENDBRANCH   8   9
ENDBRANCH   3   4
TORSDOF 2
