REMARK  3 active torsions:
REMARK  status: ('A' for Active; 'I' for Inactive)
REMARK    1  A    between atoms: C1_1  and  C3_3 
REMARK    2  A    between atoms: C2_2  and  C7_7 
REMARK    3  A    between atoms: C7_7  and  C8_8 
ROOT
HETATM    1  C1  UNL     1     -33.178   8.177   1.753  1.00 20.00    -0.029 C 
HETATM    2  C2  UNL     1     -33.304   7.650   2.825  1.00 20.00    -0.098 C 
ENDROOT
BRANCH   2   3
HETATM    3  C7  UNL     1     -33.458   7.004   4.136  1.00 20.00     0.098 C 
BRANCH   3   4
HETATM    4  C8  UNL     1     -34.191   5.652   4.078  1.00 20.00    -0.012 C 
HETATM    5  C5  UNL     1     -33.464   4.634   3.197  1.00 20.00     0.010 C 
HETATM    6  C6  UNL     1     -34.453   5.072   5.470  1.00 20.00     0.010 C 
ENDBRANCH   3   4
ENDBRANCH   2   3
BRANCH   1   7
HETATM    7  C3  UNL     1     -33.029   8.804   0.462  1.00 20.00     0.198 C 
HETATM    8  C4  UNL     1     -33.068   7.891  -0.727  1.00 20.00     0.106 C 
HETATM    9  O9  UNL     1     -32.882  10.017   0.387  1.00 20.00    -0.284 OA
ENDBRANCH   1   7
TORSDOF 3
