REMARK  2 active torsions:
REMARK  status: ('A' for Active; 'I' for Inactive)
REMARK    1  A    between atoms: C1_1  and  C4_4 
REMARK    2  A    between atoms: C1_1  and  C5_5 
ROOT
HETATM    1  C1  UNL     1     -33.335   6.123   3.027  1.00 20.00     0.144 C 
HETATM    2  O6  UNL     1     -33.409   4.998   2.536  1.00 20.00    -0.296 OA
ENDROOT
BRANCH   1   3
HETATM    3  C4  UNL     1     -34.300   6.560   4.042  1.00 20.00     0.056 A 
HETATM    4  C2  UNL     1     -35.452   5.661   4.401  1.00 20.00     0.013 A 
HETATM    5  C3  UNL     1     -34.332   5.865   5.376  1.00 20.00     0.013 A 
ENDBRANCH   1   3
BRANCH   1   6
HETATM    6  C5  UNL     1     -32.276   7.134   2.650  1.00 20.00     0.193 C 
HETATM    7 CL7  UNL     1     -32.818   8.130   1.291  1.00 20.00    -0.123 Cl
ENDBRANCH   1   6
TORSDOF 2
