REMARK  0 active torsions:
REMARK  status: ('A' for Active; 'I' for Inactive)
ROOT
HETATM    1  C1  UNL     1     -32.444   7.419   4.560  1.00 20.00     0.047 A 
HETATM    2  C2  UNL     1     -32.091   7.450   3.263  1.00 20.00     0.052 A 
HETATM    3  C3  UNL     1     -33.673   6.775   4.966  1.00 20.00     0.153 A 
HETATM    4  C4  UNL     1     -34.489   6.197   4.070  1.00 20.00     0.167 A 
HETATM    5  C5  UNL     1     -34.211   6.181   2.623  1.00 20.00     0.262 A 
HETATM    6  C6  UNL     1     -32.911   6.860   2.188  1.00 20.00     0.258 A 
HETATM    7  O7  UNL     1     -33.119   5.448   2.048  1.00 20.00    -0.327 OA
HETATM    8  F8  UNL     1     -33.979   6.762   6.280  1.00 20.00    -0.203 F 
HETATM    9  F9  UNL     1     -35.620   5.604   4.514  1.00 20.00    -0.204 F 
HETATM   10  F10 UNL     1     -32.984   7.601   1.013  1.00 20.00    -0.203 F 
ENDROOT
TORSDOF 0
