REMARK  0 active torsions:
REMARK  status: ('A' for Active; 'I' for Inactive)
ROOT
HETATM    1  C1  UNL     1     -32.769   8.612   1.064  1.00 20.00     0.017 C 
HETATM    2  C2  UNL     1     -32.675   7.750   1.894  1.00 20.00    -0.057 C 
HETATM    3  C3  UNL     1     -32.561   6.699   2.906  1.00 20.00     0.342 C 
HETATM    4  C4  UNL     1     -34.002   6.732   4.663  1.00 20.00     0.150 C 
HETATM    5  C5  UNL     1     -34.076   5.389   3.964  1.00 20.00     0.150 C 
HETATM    6  C6  UNL     1     -34.032   6.653   6.176  1.00 20.00     0.042 C 
HETATM    7  C7  UNL     1     -35.477   4.825   3.839  1.00 20.00     0.042 C 
HETATM    8  O8  UNL     1     -32.743   7.251   4.220  1.00 20.00    -0.343 OA
HETATM    9  O9  UNL     1     -33.543   5.680   2.668  1.00 20.00    -0.343 OA
ENDROOT
TORSDOF 0
