REMARK  1 active torsions:
REMARK  status: ('A' for Active; 'I' for Inactive)
REMARK    1  A    between atoms: C1_1  and  C9_9 
ROOT
HETATM    1  C2  UNL     1     -32.660   8.212   1.879  1.00 20.00     0.010 C 
HETATM    2  C3  UNL     1     -34.729   7.171   3.071  1.00 20.00     0.025 C 
HETATM    3  C4  UNL     1     -32.543   7.199   4.275  1.00 20.00     0.025 C 
HETATM    4  C5  UNL     1     -33.361   5.241   3.223  1.00 20.00     0.026 C 
HETATM    5  C6  UNL     1     -33.830   7.197   1.820  1.00 20.00    -0.008 C 
HETATM    6  C7  UNL     1     -31.966   7.221   2.848  1.00 20.00    -0.008 C 
HETATM    7  C8  UNL     1     -32.763   6.093   2.116  1.00 20.00    -0.005 C 
HETATM    8  C9  UNL     1     -33.848   6.413   4.074  1.00 20.00     0.049 C 
ENDROOT
BRANCH   8   9
HETATM    9  C1  UNL     1     -34.523   5.966   5.345  1.00 20.00     0.181 C 
HETATM   10  O10 UNL     1     -34.481   6.794   6.298  1.00 20.00    -0.647 OA
HETATM   11  O11 UNL     1     -35.045   4.817   5.293  1.00 20.00    -0.647 OA
ENDBRANCH   8   9
TORSDOF 1
