REMARK  1 active torsions:
REMARK  status: ('A' for Active; 'I' for Inactive)
REMARK    1  A    between atoms: C1_1  and  C3_3 
ROOT
HETATM    1  C2  UNL     1     -35.343   5.684   4.518  1.00 20.00     0.103 A 
HETATM    2  C3  UNL     1     -33.922   6.137   4.746  1.00 20.00     0.073 A 
HETATM    3  C5  UNL     1     -33.636   6.927   5.996  1.00 20.00     0.036 C 
HETATM    4  S7  UNL     1     -34.253   4.440   4.987  1.00 20.00    -0.149 SA
ENDROOT
BRANCH   2   5
HETATM    5  C1  UNL     1     -33.098   6.420   3.552  1.00 20.00     0.142 C 
HETATM    6  C4  UNL     1     -33.414   5.631   2.310  1.00 20.00     0.092 C 
HETATM    7  O6  UNL     1     -32.200   7.260   3.572  1.00 20.00    -0.297 OA
ENDBRANCH   2   5
TORSDOF 1
