REMARK  1 active torsions:
REMARK  status: ('A' for Active; 'I' for Inactive)
REMARK    1  A    between atoms: C5_5  and  C7_7 
ROOT
HETATM    1  C1  UNL     1     -33.988   6.581   5.815  1.00 20.00    -0.026 A 
HETATM    2  C2  UNL     1     -33.232   7.110   4.843  1.00 20.00    -0.013 A 
HETATM    3  C3  UNL     1     -34.441   4.573   4.368  1.00 20.00    -0.019 A 
HETATM    4  C4  UNL     1     -33.685   5.089   3.381  1.00 20.00    -0.071 A 
HETATM    5  C6  UNL     1     -34.706   5.273   5.670  1.00 20.00     0.054 A 
HETATM    6  C7  UNL     1     -33.040   6.450   3.508  1.00 20.00     0.123 A 
HETATM    7  C8  UNL     1     -33.408   4.316   2.122  1.00 20.00     0.044 C 
ENDROOT
BRANCH   6   8
HETATM    8  C5  UNL     1     -33.676   7.365   2.505  1.00 20.00     0.230 C 
HETATM    9  O9  UNL     1     -34.878   7.612   2.528  1.00 20.00    -0.279 OA
HETATM   10 CL10 UNL     1     -32.522   7.990   1.366  1.00 20.00    -0.043 Cl
ENDBRANCH   6   8
TORSDOF 1
