REMARK  1 active torsions:
REMARK  status: ('A' for Active; 'I' for Inactive)
REMARK    1  A    between atoms: C2_2  and  C6_6 
ROOT
HETATM    1  C1  UNL     1     -32.984   7.566   1.244  1.00 20.00     0.074 C 
HETATM    2  C3  UNL     1     -32.923   5.462   2.551  1.00 20.00     0.031 C 
HETATM    3  C4  UNL     1     -33.898   4.610   3.358  1.00 20.00     0.025 C 
HETATM    4  C5  UNL     1     -33.765   6.425   1.722  1.00 20.00     0.154 C 
HETATM    5  C6  UNL     1     -34.900   5.555   4.006  1.00 20.00     0.117 C 
HETATM    6  N8  UNL     1     -32.365   8.471   0.865  1.00 20.00    -0.196 NA
HETATM    7  S10 UNL     1     -35.109   6.928   2.841  1.00 20.00    -0.137 SA
ENDROOT
BRANCH   5   8
HETATM    8  C2  UNL     1     -34.401   6.113   5.299  1.00 20.00     0.136 C 
HETATM    9  C7  UNL     1     -34.797   5.378   6.551  1.00 20.00     0.092 C 
HETATM   10  O9  UNL     1     -33.699   7.122   5.338  1.00 20.00    -0.297 OA
ENDBRANCH   5   8
TORSDOF 1
