REMARK  2 active torsions:
REMARK  status: ('A' for Active; 'I' for Inactive)
REMARK    1  A    between atoms: C2_2  and  C7_7 
REMARK    2  A    between atoms: C3_3  and  C6_6 
ROOT
HETATM    1  C4  UNL     1     -34.576   7.010   6.020  1.00 20.00     0.014 C 
HETATM    2  C5  UNL     1     -34.383   5.498   6.233  1.00 20.00     0.015 C 
HETATM    3  C6  UNL     1     -34.330   6.787   4.505  1.00 20.00     0.067 C 
HETATM    4  C7  UNL     1     -34.723   5.283   4.729  1.00 20.00    -0.011 C 
HETATM    5  C10 UNL     1     -36.197   4.971   4.461  1.00 20.00     0.021 C 
ENDROOT
BRANCH   4   6
HETATM    6  C2  UNL     1     -33.843   4.296   4.050  1.00 20.00    -0.084 C 
HETATM    7  C1  UNL     1     -32.854   3.664   4.699  1.00 20.00     0.015 C 
HETATM    8  C8  UNL     1     -34.125   4.048   2.598  1.00 20.00     0.043 C 
ENDBRANCH   4   6
BRANCH   3   9
HETATM    9  C3  UNL     1     -32.922   7.125   3.981  1.00 20.00     0.128 C 
HETATM   10  C9  UNL     1     -32.234   8.308   4.606  1.00 20.00     0.091 C 
HETATM   11  O11 UNL     1     -32.386   6.459   3.096  1.00 20.00    -0.298 OA
ENDBRANCH   3   9
TORSDOF 2
