REMARK  3 active torsions:
REMARK  status: ('A' for Active; 'I' for Inactive)
REMARK    1  A    between atoms: C1_1  and  C8_8 
REMARK    2  A    between atoms: C8_8  and  C9_9 
REMARK    3  A    between atoms: C9_9  and  C10_10 
ROOT
HETATM    1  C8  UNL     1     -33.071   6.528   2.645  1.00 20.00     0.055 C 
ENDROOT
BRANCH   1   2
HETATM    2  C1  UNL     1     -33.630   6.249   4.001  1.00 20.00     0.006 C 
HETATM    3  C2  UNL     1     -34.321   4.953   4.289  1.00 20.00     0.056 C 
HETATM    4  C3  UNL     1     -34.274   4.986   5.797  1.00 20.00     0.027 C 
HETATM    5  C4  UNL     1     -34.277   6.474   6.099  1.00 20.00     0.149 C 
HETATM    6  N11 UNL     1     -33.577   7.115   4.967  1.00 20.00    -0.298 NA
ENDBRANCH   1   2
BRANCH   1   7
HETATM    7  C9  UNL     1     -33.141   8.022   2.318  1.00 20.00     0.014 C 
BRANCH   7   8
HETATM    8  C10 UNL     1     -32.645   8.425   0.903  1.00 20.00    -0.051 C 
HETATM    9  C5  UNL     1     -31.155   8.092   0.720  1.00 20.00     0.014 C 
HETATM   10  C6  UNL     1     -32.865   9.924   0.641  1.00 20.00     0.014 C 
HETATM   11  C7  UNL     1     -33.456   7.624  -0.136  1.00 20.00     0.014 C 
ENDBRANCH   7   8
ENDBRANCH   1   7
TORSDOF 3
