REMARK  2 active torsions:
REMARK  status: ('A' for Active; 'I' for Inactive)
REMARK    1  A    between atoms: C5_5  and  O9_9 
REMARK    2  A    between atoms: C8_8  and  O9_9 
ROOT
HETATM    1  C1  UNL     1     -34.122   6.440   5.875  1.00 20.00    -0.028 C 
HETATM    2  C2  UNL     1     -33.507   6.911   4.781  1.00 20.00     0.002 C 
HETATM    3  C3  UNL     1     -34.809   5.109   5.923  1.00 20.00     0.028 C 
HETATM    4  C4  UNL     1     -34.445   4.205   4.742  1.00 20.00     0.022 C 
HETATM    5  C5  UNL     1     -33.467   6.170   3.472  1.00 20.00     0.158 C 
HETATM    6  C6  UNL     1     -34.447   4.992   3.435  1.00 20.00     0.090 C 
HETATM    7 BR10 UNL     1     -33.954   3.782   1.971  1.00 20.00    -0.088 Br
ENDROOT
BRANCH   5   8
HETATM    8  O9  UNL     1     -33.815   7.073   2.422  1.00 20.00    -0.381 OA
BRANCH   8   9
HETATM    9  C8  UNL     1     -32.712   7.887   2.054  1.00 20.00     0.164 C 
HETATM   10  C7  UNL     1     -33.137   8.820   0.941  1.00 20.00     0.033 C 
ENDBRANCH   8   9
ENDBRANCH   5   8
TORSDOF 2
