REMARK  1 active torsions:
REMARK  status: ('A' for Active; 'I' for Inactive)
REMARK    1  A    between atoms: C6_6  and  C7_7 
ROOT
HETATM    1  C1  UNL     1     -33.433   4.451   2.332  1.00 20.00    -0.003 C 
HETATM    2  C2  UNL     1     -33.326   5.789   1.759  1.00 20.00     0.015 C 
HETATM    3  C3  UNL     1     -33.138   6.965   3.881  1.00 20.00     0.011 C 
HETATM    4  C4  UNL     1     -34.168   3.960   3.350  1.00 20.00    -0.026 C 
HETATM    5  C5  UNL     1     -34.362   6.888   4.431  1.00 20.00    -0.021 C 
HETATM    6  C6  UNL     1     -33.121   6.937   2.434  1.00 20.00     0.009 C 
HETATM    7  C8  UNL     1     -35.214   4.599   4.242  1.00 20.00     0.035 C 
HETATM    8  C9  UNL     1     -34.759   5.688   5.254  1.00 20.00     0.007 C 
HETATM    9  C11 UNL     1     -33.719   5.168   6.248  1.00 20.00     0.014 C 
ENDROOT
BRANCH   6  10
HETATM   10  C7  UNL     1     -32.949   8.178   1.674  1.00 20.00     0.155 C 
HETATM   11  C10 UNL     1     -32.335   8.086   0.302  1.00 20.00     0.096 C 
HETATM   12  O12 UNL     1     -33.292   9.258   2.156  1.00 20.00    -0.293 OA
ENDBRANCH   6  10
TORSDOF 1
