REMARK  0 active torsions:
REMARK  status: ('A' for Active; 'I' for Inactive)
ROOT
HETATM    1  C1  UNL     1     -32.869   8.235   0.996  1.00 20.00     0.013 C 
HETATM    2  C2  UNL     1     -33.037   7.392   1.834  1.00 20.00    -0.104 C 
HETATM    3  C3  UNL     1     -33.515   6.753   5.347  1.00 20.00     0.048 C 
HETATM    4  C4  UNL     1     -32.838   6.926   4.206  1.00 20.00    -0.001 C 
HETATM    5  C5  UNL     1     -34.729   5.902   5.378  1.00 20.00     0.149 C 
HETATM    6  C6  UNL     1     -35.130   5.170   4.118  1.00 20.00     0.085 C 
HETATM    7  C7  UNL     1     -34.736   5.958   2.874  1.00 20.00     0.034 C 
HETATM    8  C8  UNL     1     -33.244   6.354   2.867  1.00 20.00     0.037 C 
HETATM    9  C9  UNL     1     -32.352   5.147   2.542  1.00 20.00     0.034 C 
HETATM   10  O10 UNL     1     -35.346   5.759   6.432  1.00 20.00    -0.293 OA
ENDROOT
TORSDOF 0
