REMARK  2 active torsions:
REMARK  status: ('A' for Active; 'I' for Inactive)
REMARK    1  A    between atoms: C4_4  and  O11_11 
REMARK    2  A    between atoms: C10_10  and  O11_11 
ROOT
HETATM    1  C1  UNL     1     -34.043   5.040   4.189  1.00 20.00    -0.075 C 
HETATM    2  C2  UNL     1     -33.758   6.335   4.147  1.00 20.00    -0.049 C 
HETATM    3  C5  UNL     1     -34.697   4.625   5.444  1.00 20.00     0.034 C 
HETATM    4  C6  UNL     1     -33.736   4.332   2.932  1.00 20.00     0.037 C 
HETATM    5  C7  UNL     1     -34.163   7.060   5.366  1.00 20.00     0.037 C 
HETATM    6  C8  UNL     1     -34.531   5.894   6.307  1.00 20.00     0.009 C 
HETATM    7  C9  UNL     1     -32.934   5.406   2.165  1.00 20.00     0.041 C 
HETATM    8  C10 UNL     1     -33.208   6.765   2.848  1.00 20.00     0.157 C 
ENDROOT
BRANCH   8   9
HETATM    9  O11 UNL     1     -32.010   7.496   3.026  1.00 20.00    -0.354 OA
BRANCH   9  10
HETATM   10  C4  UNL     1     -31.436   7.928   1.907  1.00 20.00     0.125 C 
HETATM   11  C3  UNL     1     -32.088   8.244   0.786  1.00 20.00     0.037 C 
ENDBRANCH   9  10
ENDBRANCH   8   9
TORSDOF 2
