REMARK  0 active torsions:
REMARK  status: ('A' for Active; 'I' for Inactive)
ROOT
HETATM    1  C1  UNL     1     -32.862   5.904   1.161  1.00 20.00     0.057 C 
HETATM    2  C2  UNL     1     -34.300   4.908   4.415  1.00 20.00    -0.019 C 
HETATM    3  C3  UNL     1     -33.835   5.584   3.357  1.00 20.00    -0.051 C 
HETATM    4  C4  UNL     1     -33.550   5.127   2.015  1.00 20.00    -0.052 C 
HETATM    5  C5  UNL     1     -32.295   7.216   1.588  1.00 20.00     0.150 C 
HETATM    6  C6  UNL     1     -34.435   5.790   5.615  1.00 20.00     0.028 C 
HETATM    7  C7  UNL     1     -32.360   7.584   3.058  1.00 20.00     0.092 C 
HETATM    8  C8  UNL     1     -33.619   7.023   5.218  1.00 20.00     0.013 C 
HETATM    9  C9  UNL     1     -33.632   7.035   3.688  1.00 20.00     0.026 C 
HETATM   10  C10 UNL     1     -34.063   3.779   1.595  1.00 20.00     0.049 C 
HETATM   11  O11 UNL     1     -31.728   7.933   0.766  1.00 20.00    -0.293 OA
ENDROOT
TORSDOF 0
