REMARK  3 active torsions:
REMARK  status: ('A' for Active; 'I' for Inactive)
REMARK    1  A    between atoms: C1_1  and  C2_2 
REMARK    2  A    between atoms: C4_4  and  C9_9 
REMARK    3  A    between atoms: C5_5  and  C9_9 
ROOT
HETATM    1  C2  UNL     1     -33.119   6.714   2.221  1.00 20.00    -0.004 C 
HETATM    2  C4  UNL     1     -33.237   5.494   2.767  1.00 20.00    -0.015 C 
ENDROOT
BRANCH   2   3
HETATM    3  C9  UNL     1     -34.252   5.152   3.825  1.00 20.00     0.073 C 
HETATM    4  C8  UNL     1     -34.132   3.696   4.259  1.00 20.00     0.022 C 
BRANCH   3   5
HETATM    5  C5  UNL     1     -34.052   6.069   5.029  1.00 20.00     0.130 C 
HETATM    6  C7  UNL     1     -35.003   5.881   6.185  1.00 20.00     0.091 C 
HETATM    7  O10 UNL     1     -33.191   6.948   5.062  1.00 20.00    -0.298 OA
ENDBRANCH   3   5
ENDBRANCH   2   3
BRANCH   1   8
HETATM    8  C1  UNL     1     -32.142   7.034   1.205  1.00 20.00    -0.005 C 
HETATM    9  C3  UNL     1     -32.024   8.254   0.660  1.00 20.00    -0.031 C 
HETATM   10  C6  UNL     1     -32.883   9.416   1.036  1.00 20.00     0.036 C 
ENDBRANCH   1   8
TORSDOF 3
