REMARK  5 active torsions:
REMARK  status: ('A' for Active; 'I' for Inactive)
REMARK    1  A    between atoms: C1_1  and  C3_3 
REMARK    2  A    between atoms: C1_1  and  O11_11 
REMARK    3  A    between atoms: C4_4  and  C7_7 
REMARK    4  A    between atoms: C7_7  and  C8_8 
REMARK    5  A    between atoms: C9_9  and  O11_11 
ROOT
HETATM    1  C2  UNL     1     -32.205   7.213   3.278  1.00 20.00     0.020 A 
HETATM    2  C3  UNL     1     -32.752   5.963   2.642  1.00 20.00     0.090 A 
HETATM    3  C4  UNL     1     -33.117   7.325   2.086  1.00 20.00    -0.000 A 
ENDROOT
BRANCH   2   4
HETATM    4  C1  UNL     1     -33.775   5.185   3.349  1.00 20.00     0.263 C 
HETATM    5  O10 UNL     1     -33.853   3.964   3.314  1.00 20.00    -0.265 OA
BRANCH   4   6
HETATM    6  O11 UNL     1     -34.600   6.029   4.030  1.00 20.00    -0.322 OA
BRANCH   6   7
HETATM    7  C9  UNL     1     -35.174   5.495   5.227  1.00 20.00     0.174 C 
HETATM    8  C6  UNL     1     -34.255   5.796   6.392  1.00 20.00     0.034 C 
ENDBRANCH   6   7
ENDBRANCH   4   6
ENDBRANCH   2   4
BRANCH   3   9
HETATM    9  C7  UNL     1     -32.579   7.764   0.768  1.00 20.00     0.005 C 
BRANCH   9  10
HETATM   10  C8  UNL     1     -31.991   9.185   0.815  1.00 20.00    -0.004 C 
HETATM   11  C5  UNL     1     -33.027  10.233   1.188  1.00 20.00     0.005 C 
ENDBRANCH   9  10
ENDBRANCH   3   9
TORSDOF 5
