REMARK  1 active torsions:
REMARK  status: ('A' for Active; 'I' for Inactive)
REMARK    1  A    between atoms: C3_3  and  C6_6 
ROOT
HETATM    1  C1  UNL     1     -33.434   4.820   2.780  1.00 20.00     0.005 C 
HETATM    2  C2  UNL     1     -33.330   6.106   3.152  1.00 20.00     0.040 C 
HETATM    3  C4  UNL     1     -34.080   3.783   3.639  1.00 20.00     0.033 C 
HETATM    4  C5  UNL     1     -34.279   4.296   5.062  1.00 20.00     0.049 C 
HETATM    5  C6  UNL     1     -34.725   5.763   5.071  1.00 20.00     0.116 C 
HETATM    6  C7  UNL     1     -32.648   7.134   2.306  1.00 20.00     0.076 C 
HETATM    7  C8  UNL     1     -34.760   6.295   6.505  1.00 20.00     0.054 C 
HETATM    8  O10 UNL     1     -33.843   6.612   4.330  1.00 20.00    -0.338 OA
ENDROOT
BRANCH   5   9
HETATM    9  C3  UNL     1     -36.112   5.924   4.504  1.00 20.00     0.269 C 
HETATM   10  O9  UNL     1     -36.978   5.058   4.579  1.00 20.00    -0.304 OA
ENDBRANCH   5   9
TORSDOF 1
