REMARK  1 active torsions:
REMARK  status: ('A' for Active; 'I' for Inactive)
REMARK    1  A    between atoms: C4_4  and  C6_6 
ROOT
HETATM    1  C1  UNL     1     -33.748   4.352   2.921  1.00 20.00     0.009 A 
HETATM    2  C2  UNL     1     -34.087   4.508   4.204  1.00 20.00     0.082 A 
HETATM    3  C3  UNL     1     -33.241   5.454   2.156  1.00 20.00     0.037 A 
HETATM    4  C4  UNL     1     -33.114   6.642   2.755  1.00 20.00     0.079 A 
HETATM    5  C5  UNL     1     -33.945   5.824   4.862  1.00 20.00     0.288 A 
HETATM    6  O10 UNL     1     -34.255   5.970   6.040  1.00 20.00    -0.260 OA
HETATM    7  O11 UNL     1     -33.458   6.857   4.104  1.00 20.00    -0.276 OA
ENDROOT
BRANCH   4   8
HETATM    8  C6  UNL     1     -32.608   7.836   2.076  1.00 20.00     0.039 C 
HETATM    9  C7  UNL     1     -33.169   8.399   0.993  1.00 20.00    -0.085 C 
HETATM   10  C8  UNL     1     -32.679   9.623   0.269  1.00 20.00     0.043 C 
HETATM   11  C9  UNL     1     -34.414   7.794   0.396  1.00 20.00     0.043 C 
ENDBRANCH   4   8
TORSDOF 1
