REMARK  0 active torsions:
REMARK  status: ('A' for Active; 'I' for Inactive)
ROOT
HETATM    1  C1  UNL     1     -32.639   7.369   1.609  1.00 20.00     0.095 C 
HETATM    2  C2  UNL     1     -34.118   4.127   4.221  1.00 20.00     0.007 C 
HETATM    3  C3  UNL     1     -33.183   3.829   3.043  1.00 20.00     0.008 C 
HETATM    4  C4  UNL     1     -34.387   6.721   4.106  1.00 20.00     0.276 C 
HETATM    5  C5  UNL     1     -32.556   6.372   2.689  1.00 20.00     0.330 C 
HETATM    6  C6  UNL     1     -34.644   5.369   3.466  1.00 20.00     0.021 C 
HETATM    7  C7  UNL     1     -33.518   5.209   2.433  1.00 20.00     0.038 C 
HETATM    8  N8  UNL     1     -32.704   8.155   0.758  1.00 20.00    -0.195 NA
HETATM    9  N9  UNL     1     -32.947   6.983   3.971  1.00 20.00     0.102 N 
HETATM   10  H19 UNL     1     -32.746   7.981   4.000  1.00 20.00     0.317 HD
ENDROOT
TORSDOF 0
