REMARK  1 active torsions:
REMARK  status: ('A' for Active; 'I' for Inactive)
REMARK    1  A    between atoms: C3_3  and  C7_7 
ROOT
HETATM    1  C1  UNL     1     -33.105   9.011   1.263  1.00 20.00    -0.030 C 
HETATM    2  C2  UNL     1     -32.674   7.987   0.520  1.00 20.00    -0.026 C 
HETATM    3  C4  UNL     1     -33.049   8.747   2.737  1.00 20.00     0.033 C 
HETATM    4  C5  UNL     1     -33.379   5.853   1.738  1.00 20.00     0.021 C 
HETATM    5  C6  UNL     1     -32.268   6.866   1.386  1.00 20.00     0.013 C 
HETATM    6  C7  UNL     1     -33.080   6.082   3.237  1.00 20.00     0.060 C 
HETATM    7  C8  UNL     1     -32.335   7.391   2.846  1.00 20.00     0.008 C 
ENDROOT
BRANCH   6   8
HETATM    8  C3  UNL     1     -34.261   6.178   4.205  1.00 20.00     0.127 C 
HETATM    9  C9  UNL     1     -35.429   5.266   3.940  1.00 20.00     0.091 C 
HETATM   10  O10 UNL     1     -34.256   6.960   5.155  1.00 20.00    -0.298 OA
ENDBRANCH   6   8
TORSDOF 1
