REMARK  3 active torsions:
REMARK  status: ('A' for Active; 'I' for Inactive)
REMARK    1  A    between atoms: C2_2  and  N9_9 
REMARK    2  A    between atoms: C6_6  and  N9_9 
REMARK    3  A    between atoms: C7_7  and  N9_9 
ROOT
HETATM    1  C1  UNL     1     -33.053   7.977   1.649  1.00 20.00     0.036 C 
HETATM    2  C2  UNL     1     -33.472   7.434   2.634  1.00 20.00     0.024 C 
HETATM    3  C3  UNL     1     -32.573   8.598   0.523  1.00 20.00     0.154 C 
HETATM    4  N8  UNL     1     -32.168   9.123  -0.429  1.00 20.00    -0.182 NA
ENDROOT
BRANCH   2   5
HETATM    5  N9  UNL     1     -33.979   6.775   3.827  1.00 20.00    -0.342 N 
BRANCH   5   6
HETATM    6  C6  UNL     1     -33.267   7.001   5.067  1.00 20.00     0.128 C 
HETATM    7  C4  UNL     1     -33.903   6.264   6.195  1.00 20.00     0.027 C 
ENDBRANCH   5   6
BRANCH   5   8
HETATM    8  C7  UNL     1     -34.683   5.523   3.649  1.00 20.00     0.128 C 
HETATM    9  C5  UNL     1     -33.807   4.501   3.007  1.00 20.00     0.027 C 
ENDBRANCH   5   8
ENDBRANCH   2   5
TORSDOF 3
