REMARK  1 active torsions:
REMARK  status: ('A' for Active; 'I' for Inactive)
REMARK    1  A    between atoms: C3_3  and  C6_6 
ROOT
HETATM    1  C1  UNL     1     -34.676   4.813   6.216  1.00 20.00    -0.024 C 
HETATM    2  C2  UNL     1     -35.723   5.017   5.396  1.00 20.00    -0.083 C 
HETATM    3  C4  UNL     1     -33.434   5.655   6.231  1.00 20.00     0.032 C 
HETATM    4  C5  UNL     1     -35.725   6.135   4.360  1.00 20.00     0.021 C 
HETATM    5  C6  UNL     1     -34.317   6.741   4.112  1.00 20.00     0.066 C 
HETATM    6  C7  UNL     1     -33.588   6.969   5.450  1.00 20.00    -0.003 C 
HETATM    7  C8  UNL     1     -36.960   4.170   5.521  1.00 20.00     0.043 C 
HETATM    8  C10 UNL     1     -36.396   5.745   3.034  1.00 20.00     0.015 C 
HETATM    9  C11 UNL     1     -32.236   7.665   5.281  1.00 20.00     0.011 C 
ENDROOT
BRANCH   5  10
HETATM   10  C3  UNL     1     -33.486   5.885   3.191  1.00 20.00     0.128 C 
HETATM   11  C9  UNL     1     -33.053   6.510   1.893  1.00 20.00     0.091 C 
HETATM   12  O12 UNL     1     -33.175   4.733   3.488  1.00 20.00    -0.298 OA
ENDBRANCH   5  10
TORSDOF 1
