REMARK  1 active torsions:
REMARK  status: ('A' for Active; 'I' for Inactive)
REMARK    1  A    between atoms: C1_1  and  C4_4 
ROOT
HETATM    1  C2  UNL     1     -34.053   4.169   5.307  1.00 20.00     0.180 C 
HETATM    2  C3  UNL     1     -34.270   5.453   6.087  1.00 20.00     0.103 C 
HETATM    3  C4  UNL     1     -34.456   5.592   3.503  1.00 20.00     0.165 C 
HETATM    4  C6  UNL     1     -35.708   6.076   2.787  1.00 20.00     0.067 C 
HETATM    5  O8  UNL     1     -34.705   4.290   4.035  1.00 20.00    -0.362 OA
HETATM    6  S9  UNL     1     -33.989   6.717   4.840  1.00 20.00    -0.122 SA
ENDROOT
BRANCH   3   7
HETATM    7  C1  UNL     1     -33.308   5.495   2.544  1.00 20.00     0.167 C 
HETATM    8  C5  UNL     1     -32.898   6.765   1.849  1.00 20.00     0.095 C 
HETATM    9  O7  UNL     1     -32.729   4.430   2.337  1.00 20.00    -0.294 OA
ENDBRANCH   3   7
TORSDOF 1
