REMARK  1 active torsions:
REMARK  status: ('A' for Active; 'I' for Inactive)
REMARK    1  A    between atoms: C3_3  and  C5_5 
ROOT
HETATM    1  C1  UNL     1     -33.322   5.726   2.133  1.00 20.00     0.050 A 
HETATM    2  C2  UNL     1     -33.641   5.528   3.495  1.00 20.00    -0.026 A 
HETATM    3  C3  UNL     1     -33.291   7.093   1.945  1.00 20.00     0.113 A 
HETATM    4  C4  UNL     1     -33.775   6.787   4.033  1.00 20.00     0.060 A 
HETATM    5  C6  UNL     1     -33.807   4.298   4.311  1.00 20.00     0.041 C 
HETATM    6  C7  UNL     1     -34.129   7.145   5.423  1.00 20.00     0.066 C 
HETATM    7  C8  UNL     1     -34.520   4.617   5.643  1.00 20.00     0.005 C 
HETATM    8  C9  UNL     1     -33.976   5.896   6.316  1.00 20.00     0.007 C 
HETATM    9  O11 UNL     1     -33.570   7.752   3.106  1.00 20.00    -0.311 OA
ENDROOT
BRANCH   3  10
HETATM   10  C5  UNL     1     -33.026   7.876   0.787  1.00 20.00     0.295 C 
HETATM   11  O10 UNL     1     -33.033   9.127   0.765  1.00 20.00    -0.299 OA
ENDBRANCH   3  10
TORSDOF 1
