REMARK  1 active torsions:
REMARK  status: ('A' for Active; 'I' for Inactive)
REMARK    1  A    between atoms: C1_1  and  C9_9 
ROOT
HETATM    1  C2  UNL     1     -33.509   4.350   3.289  1.00 20.00     0.031 C 
HETATM    2  C3  UNL     1     -33.078   6.560   5.472  1.00 20.00     0.031 C 
HETATM    3  C4  UNL     1     -32.883   5.461   2.445  1.00 20.00     0.022 C 
HETATM    4  C5  UNL     1     -32.532   7.279   4.238  1.00 20.00     0.022 C 
HETATM    5  C6  UNL     1     -34.940   4.662   3.734  1.00 20.00     0.272 C 
HETATM    6  C7  UNL     1     -34.602   6.399   5.452  1.00 20.00     0.272 C 
HETATM    7  C8  UNL     1     -34.755   6.984   3.121  1.00 20.00     0.290 C 
HETATM    8  C9  UNL     1     -33.237   6.883   2.926  1.00 20.00     0.062 C 
HETATM    9  N10 UNL     1     -35.195   6.045   4.157  1.00 20.00     0.089 N 
ENDROOT
BRANCH   8  10
HETATM   10  C1  UNL     1     -32.809   7.863   1.865  1.00 20.00     0.229 C 
HETATM   11  O11 UNL     1     -32.275   7.494   0.823  1.00 20.00    -0.279 OA
HETATM   12 CL12 UNL     1     -33.164   9.505   2.309  1.00 20.00    -0.043 Cl
ENDBRANCH   8  10
TORSDOF 1
