REMARK  1 active torsions:
REMARK  status: ('A' for Active; 'I' for Inactive)
REMARK    1  A    between atoms: C2_2  and  C6_6 
ROOT
HETATM    1  C1  UNL     1     -33.555   5.244   3.217  1.00 20.00     0.139 C 
HETATM    2  C3  UNL     1     -34.618   4.365   3.843  1.00 20.00     0.089 C 
HETATM    3  C4  UNL     1     -34.601   4.454   5.360  1.00 20.00     0.081 C 
HETATM    4  C5  UNL     1     -33.551   6.973   5.040  1.00 20.00     0.093 C 
HETATM    5  C6  UNL     1     -33.631   6.730   3.536  1.00 20.00     0.133 C 
HETATM    6  O8  UNL     1     -32.722   4.777   2.441  1.00 20.00    -0.297 OA
HETATM    7  S10 UNL     1     -34.909   6.152   5.929  1.00 20.00    -0.168 SA
ENDROOT
BRANCH   5   8
HETATM    8  C2  UNL     1     -32.546   7.518   2.865  1.00 20.00     0.135 C 
HETATM    9  C7  UNL     1     -32.829   8.009   1.471  1.00 20.00     0.091 C 
HETATM   10  O9  UNL     1     -31.478   7.754   3.428  1.00 20.00    -0.298 OA
ENDBRANCH   5   8
TORSDOF 1
