REMARK  2 active torsions:
REMARK  status: ('A' for Active; 'I' for Inactive)
REMARK    1  A    between atoms: C4_4  and  C6_6 
REMARK    2  A    between atoms: C7_7  and  O10_10 
ROOT
HETATM    1  C1  UNL     1     -32.738   7.488   1.983  1.00 20.00     0.218 C 
HETATM    2  C4  UNL     1     -32.817   6.951   3.165  1.00 20.00     0.043 C 
HETATM    3  O9  UNL     1     -32.666   7.972   0.914  1.00 20.00    -0.284 OA
ENDROOT
BRANCH   2   4
HETATM    4  C6  UNL     1     -34.086   6.730   3.918  1.00 20.00     0.064 C 
HETATM    5  C3  UNL     1     -33.919   6.798   5.407  1.00 20.00    -0.020 C 
HETATM    6  C2  UNL     1     -34.668   5.880   6.027  1.00 20.00    -0.027 C 
HETATM    7  C5  UNL     1     -35.438   5.043   5.056  1.00 20.00     0.059 C 
HETATM    8  C7  UNL     1     -34.725   5.339   3.731  1.00 20.00     0.135 C 
BRANCH   8   9
HETATM    9  O10 UNL     1     -33.745   4.320   3.529  1.00 20.00    -0.389 OA
HETATM   10  C8  UNL     1     -33.363   4.237   2.165  1.00 20.00     0.202 C 
ENDBRANCH   8   9
ENDBRANCH   2   4
TORSDOF 2
