REMARK  2 active torsions:
REMARK  status: ('A' for Active; 'I' for Inactive)
REMARK    1  A    between atoms: C3_3  and  C6_6 
REMARK    2  A    between atoms: C3_3  and  O10_10 
ROOT
HETATM    1  C1  UNL     1     -33.394   5.750   2.765  1.00 20.00    -0.010 C 
HETATM    2  C2  UNL     1     -34.147   5.589   3.860  1.00 20.00    -0.087 C 
HETATM    3  C4  UNL     1     -33.811   6.595   4.915  1.00 20.00     0.034 C 
HETATM    4  C5  UNL     1     -32.507   7.215   4.401  1.00 20.00     0.023 C 
HETATM    5  C6  UNL     1     -32.433   6.881   2.910  1.00 20.00     0.108 C 
HETATM    6  C7  UNL     1     -35.221   4.585   4.067  1.00 20.00     0.043 C 
ENDROOT
BRANCH   5   7
HETATM    7  C3  UNL     1     -32.912   8.010   2.053  1.00 20.00     0.266 C 
HETATM    8  O9  UNL     1     -33.242   9.106   2.484  1.00 20.00    -0.265 OA
BRANCH   7   9
HETATM    9  O10 UNL     1     -32.918   7.619   0.746  1.00 20.00    -0.326 OA
HETATM   10  C8  UNL     1     -33.358   8.608  -0.190  1.00 20.00     0.213 C 
ENDBRANCH   7   9
ENDBRANCH   5   7
TORSDOF 2
