REMARK  2 active torsions:
REMARK  status: ('A' for Active; 'I' for Inactive)
REMARK    1  A    between atoms: C3_3  and  C5_5 
REMARK    2  A    between atoms: C3_3  and  O11_11 
ROOT
HETATM    1  C1  UNL     1     -33.535   6.434   6.515  1.00 20.00     0.012 C 
HETATM    2  C2  UNL     1     -34.223   5.701   5.858  1.00 20.00    -0.111 C 
HETATM    3  C4  UNL     1     -35.045   4.825   5.073  1.00 20.00     0.087 A 
HETATM    4  C5  UNL     1     -34.891   4.770   3.570  1.00 20.00     0.111 A 
HETATM    5  C6  UNL     1     -34.453   3.589   4.417  1.00 20.00    -0.019 A 
HETATM    6  C7  UNL     1     -35.317   2.352   4.375  1.00 20.00     0.017 C 
HETATM    7  C8  UNL     1     -32.982   3.280   4.568  1.00 20.00     0.017 C 
ENDROOT
BRANCH   4   8
HETATM    8  C3  UNL     1     -33.908   5.609   2.869  1.00 20.00     0.264 C 
HETATM    9  O10 UNL     1     -33.455   6.653   3.317  1.00 20.00    -0.265 OA
BRANCH   8  10
HETATM   10  O11 UNL     1     -33.598   5.040   1.669  1.00 20.00    -0.326 OA
HETATM   11  C9  UNL     1     -32.645   5.757   0.877  1.00 20.00     0.213 C 
ENDBRANCH   8  10
ENDBRANCH   4   8
TORSDOF 2
