REMARK  1 active torsions:
REMARK  status: ('A' for Active; 'I' for Inactive)
REMARK    1  A    between atoms: C3_3  and  C8_8 
ROOT
HETATM    1  C1  UNL     1     -33.684   5.805   4.202  1.00 20.00    -0.079 C 
HETATM    2  C2  UNL     1     -33.637   6.375   5.409  1.00 20.00    -0.028 C 
HETATM    3  C4  UNL     1     -34.919   5.275   3.518  1.00 20.00     0.039 C 
HETATM    4  C5  UNL     1     -32.963   4.173   2.712  1.00 20.00     0.014 C 
HETATM    5  C6  UNL     1     -33.835   5.912   1.329  1.00 20.00     0.019 C 
HETATM    6  C7  UNL     1     -32.505   5.512   3.296  1.00 20.00     0.027 C 
HETATM    7  C8  UNL     1     -32.573   6.416   2.052  1.00 20.00     0.081 C 
HETATM    8  C9  UNL     1     -34.300   4.734   2.215  1.00 20.00    -0.009 C 
HETATM    9  C10 UNL     1     -34.829   6.580   6.285  1.00 20.00     0.036 C 
ENDROOT
BRANCH   7  10
HETATM   10  C3  UNL     1     -32.619   7.879   2.370  1.00 20.00     0.223 C 
HETATM   11  O11 UNL     1     -32.566   8.289   3.526  1.00 20.00    -0.279 OA
HETATM   12 CL12 UNL     1     -32.752   8.856   0.939  1.00 20.00    -0.043 Cl
ENDBRANCH   7  10
TORSDOF 1
