REMARK  1 active torsions:
REMARK  status: ('A' for Active; 'I' for Inactive)
REMARK    1  A    between atoms: C3_3  and  C7_7 
ROOT
HETATM    1  C1  UNL     1     -34.318   6.329   5.422  1.00 20.00     0.218 C 
HETATM    2  C4  UNL     1     -34.565   4.833   5.397  1.00 20.00     0.103 C 
HETATM    3  C5  UNL     1     -34.706   4.241   4.004  1.00 20.00     0.012 C 
HETATM    4  C6  UNL     1     -33.563   4.714   3.119  1.00 20.00     0.029 C 
HETATM    5  C7  UNL     1     -33.620   6.228   3.011  1.00 20.00     0.106 C 
HETATM    6  N8  UNL     1     -33.732   6.880   4.304  1.00 20.00    -0.353 N 
HETATM    7  O9  UNL     1     -34.556   6.987   6.436  1.00 20.00    -0.274 OA
HETATM    8  H20 UNL     1     -33.351   7.812   4.390  1.00 20.00     0.163 HD
ENDROOT
BRANCH   5   9
HETATM    9  C3  UNL     1     -32.368   6.660   2.277  1.00 20.00    -0.012 C 
HETATM   10  C2  UNL     1     -32.308   7.712   1.453  1.00 20.00     0.009 C 
ENDBRANCH   5   9
TORSDOF 1
