REMARK  1 active torsions:
REMARK  status: ('A' for Active; 'I' for Inactive)
REMARK    1  A    between atoms: C4_4  and  C10_10 
ROOT
HETATM    1  C1  UNL     1     -33.231   5.019   2.367  1.00 20.00     0.174 C 
HETATM    2  C2  UNL     1     -32.164   6.028   2.603  1.00 20.00     0.025 A 
HETATM    3  C3  UNL     1     -32.664   6.941   3.658  1.00 20.00     0.030 A 
HETATM    4  C4  UNL     1     -34.033   6.462   4.030  1.00 20.00     0.130 C 
HETATM    5  C5  UNL     1     -32.310   7.506   2.293  1.00 20.00    -0.035 A 
HETATM    6  C6  UNL     1     -31.039   8.314   2.197  1.00 20.00     0.016 C 
HETATM    7  C7  UNL     1     -33.391   7.988   1.362  1.00 20.00     0.016 C 
HETATM    8  O11 UNL     1     -34.414   5.474   3.050  1.00 20.00    -0.385 OA
ENDROOT
BRANCH   4   9
HETATM    9  C10 UNL     1     -34.066   5.812   5.405  1.00 20.00     0.007 C 
HETATM   10  C8  UNL     1     -34.078   6.873   6.506  1.00 20.00     0.012 C 
HETATM   11  C9  UNL     1     -35.278   4.891   5.540  1.00 20.00     0.012 C 
ENDBRANCH   4   9
TORSDOF 1
