REMARK  2 active torsions:
REMARK  status: ('A' for Active; 'I' for Inactive)
REMARK    1  A    between atoms: C2_2  and  C8_8 
REMARK    2  A    between atoms: C8_8  and  N9_9 
ROOT
HETATM    1  C1  UNL     1     -32.960   8.033   0.556  1.00 20.00    -0.109 C 
HETATM    2  C2  UNL     1     -32.632   7.753   1.677  1.00 20.00    -0.077 C 
HETATM    3  C7  UNL     1     -33.360   8.373  -0.808  1.00 20.00     0.112 C 
ENDROOT
BRANCH   2   4
HETATM    4  C8  UNL     1     -32.224   7.413   3.043  1.00 20.00     0.365 C 
BRANCH   4   5
HETATM    5  N9  UNL     1     -33.350   6.879   3.806  1.00 20.00     0.103 N 
HETATM    6  C3  UNL     1     -33.099   6.983   5.250  1.00 20.00     0.299 C 
HETATM    7  C5  UNL     1     -34.281   6.407   6.025  1.00 20.00     0.198 C 
HETATM    8  O10 UNL     1     -34.504   5.047   5.654  1.00 20.00    -0.388 OA
HETATM    9  C6  UNL     1     -34.782   4.941   4.257  1.00 20.00     0.198 C 
HETATM   10  C4  UNL     1     -33.611   5.480   3.440  1.00 20.00     0.299 C 
ENDBRANCH   4   5
ENDBRANCH   2   4
TORSDOF 2
