REMARK  0 active torsions:
REMARK  status: ('A' for Active; 'I' for Inactive)
ROOT
HETATM    1  C1  UNL     1     -32.492   7.877   5.022  1.00 20.00    -0.014 C 
HETATM    2  C2  UNL     1     -31.801   7.547   3.917  1.00 20.00    -0.004 C 
HETATM    3  C3  UNL     1     -33.990   5.427   3.552  1.00 20.00     0.203 A 
HETATM    4  C4  UNL     1     -33.947   7.503   4.933  1.00 20.00     0.126 C 
HETATM    5  C5  UNL     1     -32.714   5.426   2.686  1.00 20.00     0.126 A 
HETATM    6  C6  UNL     1     -32.702   6.957   2.889  1.00 20.00     0.042 A 
HETATM    7  C7  UNL     1     -32.914   7.819   1.660  1.00 20.00     0.038 C 
HETATM    8  N8  UNL     1     -33.959   6.791   3.664  1.00 20.00    -0.237 NA
HETATM    9  O9  UNL     1     -34.692   4.581   4.061  1.00 20.00    -0.280 OA
ENDROOT
TORSDOF 0
