REMARK  0 active torsions:
REMARK  status: ('A' for Active; 'I' for Inactive)
ROOT
HETATM    1  C1  UNL     1     -32.982   8.723   0.694  1.00 20.00     0.015 C 
HETATM    2  C2  UNL     1     -32.916   8.113   1.726  1.00 20.00    -0.073 C 
HETATM    3  C3  UNL     1     -33.650   8.073   4.078  1.00 20.00     0.225 C 
HETATM    4  C4  UNL     1     -33.974   5.821   4.285  1.00 20.00     0.442 C 
HETATM    5  C5  UNL     1     -32.834   7.364   2.992  1.00 20.00     0.240 C 
HETATM    6  C6  UNL     1     -31.364   7.229   3.423  1.00 20.00     0.066 C 
HETATM    7  C7  UNL     1     -32.903   4.980   2.277  1.00 20.00     0.315 C 
HETATM    8  N8  UNL     1     -33.579   6.101   2.909  1.00 20.00     0.130 N 
HETATM    9  O9  UNL     1     -34.045   7.056   5.009  1.00 20.00    -0.359 OA
ENDROOT
TORSDOF 0
