REMARK  0 active torsions:
REMARK  status: ('A' for Active; 'I' for Inactive)
ROOT
HETATM    1  C1  UNL     1     -33.058   9.034   0.660  1.00 20.00     0.017 C 
HETATM    2  C2  UNL     1     -33.018   8.251   1.570  1.00 20.00    -0.057 C 
HETATM    3  C3  UNL     1     -33.744   6.920   4.874  1.00 20.00     0.182 C 
HETATM    4  C4  UNL     1     -33.402   5.051   3.253  1.00 20.00     0.182 C 
HETATM    5  C5  UNL     1     -32.967   7.296   2.681  1.00 20.00     0.341 C 
HETATM    6  C6  UNL     1     -34.226   5.515   4.468  1.00 20.00    -0.004 C 
HETATM    7  C7  UNL     1     -35.718   5.571   4.088  1.00 20.00     0.019 C 
HETATM    8  C8  UNL     1     -34.040   4.537   5.634  1.00 20.00     0.019 C 
HETATM    9  O9  UNL     1     -33.764   7.806   3.753  1.00 20.00    -0.350 OA
HETATM   10  O10 UNL     1     -33.439   6.030   2.213  1.00 20.00    -0.350 OA
ENDROOT
TORSDOF 0
