REMARK  3 active torsions:
REMARK  status: ('A' for Active; 'I' for Inactive)
REMARK    1  A    between atoms: C8_8  and  C9_9 
REMARK    2  A    between atoms: C8_8  and  O11_11 
REMARK    3  A    between atoms: N10_10  and  O11_11 
ROOT
HETATM    1  C1  UNL     1     -34.623   6.372   3.876  1.00 20.00     0.107 A 
HETATM    2  C2  UNL     1     -33.613   6.659   4.979  1.00 20.00     0.049 A 
HETATM    3  C3  UNL     1     -35.504   5.171   3.887  1.00 20.00     0.031 C 
HETATM    4  C4  UNL     1     -33.416   5.673   6.102  1.00 20.00     0.036 C 
HETATM    5  C5  UNL     1     -33.425   8.097   5.392  1.00 20.00     0.036 C 
HETATM    6  N10 UNL     1     -33.195   6.198   3.642  1.00 20.00    -0.180 NA
ENDROOT
BRANCH   6   7
HETATM    7  O11 UNL     1     -32.723   7.319   2.849  1.00 20.00    -0.302 OA
BRANCH   7   8
HETATM    8  C8  UNL     1     -33.066   7.063   1.495  1.00 20.00     0.197 C 
BRANCH   8   9
HETATM    9  C9  UNL     1     -32.590   8.218   0.609  1.00 20.00     0.003 C 
HETATM   10  C6  UNL     1     -33.235   9.542   1.026  1.00 20.00     0.011 C 
HETATM   11  C7  UNL     1     -31.068   8.332   0.654  1.00 20.00     0.011 C 
ENDBRANCH   8   9
ENDBRANCH   7   8
ENDBRANCH   6   7
TORSDOF 3
