REMARK  0 active torsions:
REMARK  status: ('A' for Active; 'I' for Inactive)
ROOT
HETATM    1  C1  UNL     1     -33.361   6.437   4.330  1.00 20.00     0.169 C 
HETATM    2  C2  UNL     1     -33.542   5.255   2.562  1.00 20.00     0.062 C 
HETATM    3  C3  UNL     1     -32.541   6.344   3.032  1.00 20.00     0.058 C 
HETATM    4  C4  UNL     1     -34.201   5.175   3.971  1.00 20.00     0.174 C 
HETATM    5  C5  UNL     1     -32.488   7.606   2.196  1.00 20.00     0.018 C 
HETATM    6  O6  UNL     1     -33.345   7.201   5.273  1.00 20.00    -0.294 OA
HETATM    7 CL7  UNL     1     -33.733   3.773   4.991  1.00 20.00    -0.093 Cl
HETATM    8 CL8  UNL     1     -35.962   5.501   4.033  1.00 20.00    -0.093 Cl
ENDROOT
TORSDOF 0
