REMARK  1 active torsions:
REMARK  status: ('A' for Active; 'I' for Inactive)
REMARK    1  A    between atoms: C3_3  and  C9_9 
ROOT
HETATM    1  C1  UNL     1     -33.014   4.376   2.367  1.00 20.00     0.013 C 
HETATM    2  C2  UNL     1     -33.172   5.458   2.862  1.00 20.00    -0.099 C 
HETATM    3  C4  UNL     1     -32.182   8.800   1.602  1.00 20.00     0.000 C 
HETATM    4  C5  UNL     1     -31.293   7.910   2.462  1.00 20.00     0.002 C 
HETATM    5  C6  UNL     1     -33.512   8.125   1.289  1.00 20.00     0.002 C 
HETATM    6  C7  UNL     1     -32.001   7.475   3.746  1.00 20.00     0.030 C 
HETATM    7  C8  UNL     1     -34.239   7.691   2.562  1.00 20.00     0.030 C 
HETATM    8  C9  UNL     1     -33.369   6.817   3.484  1.00 20.00     0.083 C 
ENDROOT
BRANCH   8   9
HETATM    9  C3  UNL     1     -34.068   6.607   4.768  1.00 20.00     0.143 C 
HETATM   10  C10 UNL     1     -35.418   5.945   4.703  1.00 20.00     0.093 C 
HETATM   11  O11 UNL     1     -33.571   6.954   5.838  1.00 20.00    -0.297 OA
ENDBRANCH   8   9
TORSDOF 1
