REMARK  2 active torsions:
REMARK  status: ('A' for Active; 'I' for Inactive)
REMARK    1  A    between atoms: C3_3  and  C8_8 
REMARK    2  A    between atoms: C8_8  and  C10_10 
ROOT
HETATM    1  C1  UNL     1     -35.034   4.799   5.854  1.00 20.00    -0.026 C 
HETATM    2  C2  UNL     1     -33.703   4.699   5.988  1.00 20.00    -0.024 C 
HETATM    3  C4  UNL     1     -34.234   3.764   3.955  1.00 20.00     0.018 C 
HETATM    4  C5  UNL     1     -34.854   6.054   3.722  1.00 20.00     0.025 C 
HETATM    5  C6  UNL     1     -35.338   4.737   4.378  1.00 20.00     0.010 C 
HETATM    6  C7  UNL     1     -33.116   4.601   4.594  1.00 20.00     0.024 C 
HETATM    7  C8  UNL     1     -33.298   5.970   3.872  1.00 20.00     0.020 C 
ENDROOT
BRANCH   7   8
HETATM    8  C3  UNL     1     -32.757   7.116   4.687  1.00 20.00     0.241 C 
HETATM    9  O11 UNL     1     -33.463   7.997   5.167  1.00 20.00    -0.306 OA
ENDBRANCH   7   8
BRANCH   7  10
HETATM   10  C10 UNL     1     -32.589   6.018   2.516  1.00 20.00     0.013 C 
HETATM   11  C9  UNL     1     -32.846   7.307   1.809  1.00 20.00     0.006 C 
ENDBRANCH   7  10
TORSDOF 2
