REMARK  2 active torsions:
REMARK  status: ('A' for Active; 'I' for Inactive)
REMARK    1  A    between atoms: C4_4  and  C6_6 
REMARK    2  A    between atoms: C7_7  and  C9_9 
ROOT
HETATM    1  C1  UNL     1     -32.135   8.151   4.744  1.00 20.00    -0.003 C 
HETATM    2  C2  UNL     1     -33.172   7.250   5.174  1.00 20.00     0.011 C 
HETATM    3  C3  UNL     1     -31.765   8.235   3.460  1.00 20.00    -0.021 C 
HETATM    4  C4  UNL     1     -33.911   6.569   4.286  1.00 20.00    -0.012 C 
HETATM    5  C8  UNL     1     -32.390   7.395   2.371  1.00 20.00     0.016 C 
HETATM    6  C9  UNL     1     -33.714   6.672   2.789  1.00 20.00     0.051 C 
HETATM    7  C10 UNL     1     -32.620   8.245   1.115  1.00 20.00     0.015 C 
ENDROOT
BRANCH   4   8
HETATM    8  C6  UNL     1     -35.000   5.754   4.838  1.00 20.00     0.266 C 
HETATM    9  O11 UNL     1     -34.945   5.248   5.952  1.00 20.00    -0.302 OA
ENDBRANCH   4   8
BRANCH   6  10
HETATM   10  C7  UNL     1     -33.768   5.328   2.114  1.00 20.00    -0.027 C 
HETATM   11  C5  UNL     1     -32.912   4.331   2.364  1.00 20.00     0.007 C 
ENDBRANCH   6  10
TORSDOF 2
