REMARK  0 active torsions:
REMARK  status: ('A' for Active; 'I' for Inactive)
ROOT
HETATM    1  C1  UNL     1     -32.342   8.278   0.285  1.00 20.00     0.012 C 
HETATM    2  C2  UNL     1     -32.535   7.622   1.272  1.00 20.00    -0.112 C 
HETATM    3  C3  UNL     1     -34.007   4.816   3.370  1.00 20.00    -0.015 C 
HETATM    4  C4  UNL     1     -34.102   5.353   4.596  1.00 20.00    -0.020 C 
HETATM    5  C5  UNL     1     -33.807   6.808   4.769  1.00 20.00     0.156 C 
HETATM    6  C6  UNL     1     -33.559   5.551   2.142  1.00 20.00     0.045 C 
HETATM    7  C7  UNL     1     -33.510   7.637   3.537  1.00 20.00     0.101 C 
HETATM    8  C8  UNL     1     -32.771   6.819   2.482  1.00 20.00     0.075 C 
HETATM    9  C9  UNL     1     -34.521   4.578   5.805  1.00 20.00     0.052 C 
HETATM   10  O10 UNL     1     -33.866   7.329   5.882  1.00 20.00    -0.293 OA
ENDROOT
TORSDOF 0
