REMARK  2 active torsions:
REMARK  status: ('A' for Active; 'I' for Inactive)
REMARK    1  A    between atoms: C1_1  and  C6_6 
REMARK    2  A    between atoms: C7_7  and  C8_8 
ROOT
HETATM    1  C2  UNL     1     -33.237   6.979   4.119  1.00 20.00     0.014 C 
HETATM    2  C3  UNL     1     -33.607   5.178   2.390  1.00 20.00     0.014 C 
HETATM    3  C4  UNL     1     -32.866   7.967   3.014  1.00 20.00     0.008 C 
HETATM    4  C5  UNL     1     -33.236   6.162   1.282  1.00 20.00     0.008 C 
HETATM    5  C6  UNL     1     -34.182   5.902   3.601  1.00 20.00     0.072 C 
HETATM    6  C7  UNL     1     -32.280   7.251   1.789  1.00 20.00     0.014 C 
ENDROOT
BRANCH   5   7
HETATM    7  C1  UNL     1     -34.363   4.878   4.706  1.00 20.00     0.223 C 
HETATM    8  O9  UNL     1     -34.059   3.700   4.550  1.00 20.00    -0.279 OA
HETATM    9 CL11 UNL     1     -35.027   5.584   6.149  1.00 20.00    -0.043 Cl
ENDBRANCH   5   7
BRANCH   6  10
HETATM   10  C8  UNL     1     -31.966   8.252   0.678  1.00 20.00     0.226 C 
HETATM   11  F10 UNL     1     -33.118   8.524   0.020  1.00 20.00    -0.255 F 
ENDBRANCH   6  10
TORSDOF 2
