REMARK  1 active torsions:
REMARK  status: ('A' for Active; 'I' for Inactive)
REMARK    1  A    between atoms: C2_2  and  C3_3 
ROOT
HETATM    1  C1  UNL     1     -33.243   8.093   2.514  1.00 20.00    -0.007 C 
HETATM    2  C2  UNL     1     -33.243   6.868   3.048  1.00 20.00    -0.012 C 
HETATM    3  C4  UNL     1     -32.908   6.562   0.740  1.00 20.00     0.022 C 
HETATM    4  C5  UNL     1     -32.809   5.812   2.083  1.00 20.00     0.019 C 
HETATM    5  C6  UNL     1     -32.800   8.068   1.075  1.00 20.00    -0.029 C 
HETATM    6  C8  UNL     1     -33.665   4.551   2.082  1.00 20.00     0.015 C 
HETATM    7  C9  UNL     1     -31.357   8.571   0.951  1.00 20.00     0.019 C 
HETATM    8  C10 UNL     1     -33.727   8.899   0.184  1.00 20.00     0.019 C 
ENDROOT
BRANCH   2   9
HETATM    9  C3  UNL     1     -33.575   6.640   4.444  1.00 20.00     0.151 C 
HETATM   10  C7  UNL     1     -34.755   5.749   4.769  1.00 20.00     0.096 C 
HETATM   11  O11 UNL     1     -32.916   7.165   5.352  1.00 20.00    -0.293 OA
ENDBRANCH   2   9
TORSDOF 1
