REMARK  1 active torsions:
REMARK  status: ('A' for Active; 'I' for Inactive)
REMARK    1  A    between atoms: C3_3  and  C7_7 
ROOT
HETATM    1  C1  UNL     1     -34.950   5.469   5.887  1.00 20.00    -0.030 C 
HETATM    2  C2  UNL     1     -34.907   4.935   4.658  1.00 20.00    -0.026 C 
HETATM    3  C4  UNL     1     -34.186   6.697   6.284  1.00 20.00     0.027 C 
HETATM    4  C5  UNL     1     -33.148   7.134   5.246  1.00 20.00     0.018 C 
HETATM    5  C6  UNL     1     -34.098   5.516   3.522  1.00 20.00     0.016 C 
HETATM    6  C7  UNL     1     -33.693   6.977   3.824  1.00 20.00     0.080 C 
HETATM    7  C8  UNL     1     -32.915   4.584   3.234  1.00 20.00     0.015 C 
ENDROOT
BRANCH   6   8
HETATM    8  C3  UNL     1     -32.713   7.509   2.822  1.00 20.00     0.223 C 
HETATM    9  O9  UNL     1     -31.502   7.443   3.006  1.00 20.00    -0.279 OA
HETATM   10 CL10 UNL     1     -33.504   8.196   1.436  1.00 20.00    -0.043 Cl
ENDBRANCH   6   8
TORSDOF 1
