REMARK  1 active torsions:
REMARK  status: ('A' for Active; 'I' for Inactive)
REMARK    1  A    between atoms: C1_1  and  C3_3 
REMARK       I    between atoms: C3_3  and  N8_8 
ROOT
HETATM    1  C3  UNL     1     -33.496   5.709   2.675  1.00 20.00     0.223 C 
HETATM    2  C4  UNL     1     -34.442   4.437   4.565  1.00 20.00     0.119 A 
HETATM    3  C5  UNL     1     -34.856   5.845   4.764  1.00 20.00     0.075 A 
HETATM    4  C7  UNL     1     -33.969   6.819   5.455  1.00 20.00     0.028 C 
HETATM    5  N8  UNL     1     -34.574   5.338   3.455  1.00 20.00    -0.243 NA
HETATM    6  O9  UNL     1     -32.488   5.061   2.422  1.00 20.00    -0.275 OA
ENDROOT
BRANCH   1   7
HETATM    7  C1  UNL     1     -33.685   7.060   2.117  1.00 20.00     0.064 C 
HETATM    8  C2  UNL     1     -32.789   7.663   1.324  1.00 20.00    -0.026 C 
HETATM    9  C6  UNL     1     -32.974   9.033   0.758  1.00 20.00     0.036 C 
ENDBRANCH   1   7
TORSDOF 1
