REMARK  1 active torsions:
REMARK  status: ('A' for Active; 'I' for Inactive)
REMARK    1  A    between atoms: C1_1  and  C2_2 
ROOT
HETATM    1  C2  UNL     1     -33.836   6.887   3.939  1.00 20.00     0.084 A 
HETATM    2  C3  UNL     1     -32.354   7.146   4.065  1.00 20.00     0.018 A 
HETATM    3  C4  UNL     1     -32.919   6.656   2.747  1.00 20.00     0.048 A 
HETATM    4  C6  UNL     1     -31.856   8.537   4.268  1.00 20.00     0.012 C 
HETATM    5  C7  UNL     1     -32.578   5.262   2.304  1.00 20.00     0.034 C 
HETATM    6 CL9  UNL     1     -33.092   7.805   1.398  1.00 20.00    -0.118 Cl
ENDROOT
BRANCH   1   7
HETATM    7  C1  UNL     1     -34.429   5.753   4.661  1.00 20.00     0.129 C 
HETATM    8  C5  UNL     1     -34.164   5.678   6.140  1.00 20.00     0.091 C 
HETATM    9  O8  UNL     1     -35.110   4.907   4.084  1.00 20.00    -0.298 OA
ENDBRANCH   1   7
TORSDOF 1
