REMARK  1 active torsions:
REMARK  status: ('A' for Active; 'I' for Inactive)
REMARK    1  A    between atoms: C1_1  and  C6_6 
ROOT
HETATM    1  C1  UNL     1     -32.826   6.881   2.013  1.00 20.00    -0.100 C 
HETATM    2  C2  UNL     1     -32.740   7.648   1.093  1.00 20.00    -0.111 C 
HETATM    3  C7  UNL     1     -32.636   8.583  -0.026  1.00 20.00     0.112 C 
ENDROOT
BRANCH   1   4
HETATM    4  C6  UNL     1     -32.931   5.946   3.134  1.00 20.00     0.090 C 
HETATM    5  C4  UNL     1     -33.777   6.484   4.270  1.00 20.00     0.072 C 
HETATM    6  C3  UNL     1     -34.310   5.193   4.807  1.00 20.00     0.004 C 
HETATM    7  C8  UNL     1     -34.902   5.125   6.177  1.00 20.00     0.065 C 
HETATM    8  N9  UNL     1     -34.264   4.163   4.018  1.00 20.00    -0.297 NA
HETATM    9  C5  UNL     1     -33.661   4.660   2.764  1.00 20.00     0.166 C 
ENDBRANCH   1   4
TORSDOF 1
