REMARK  0 active torsions:
REMARK  status: ('A' for Active; 'I' for Inactive)
ROOT
HETATM    1  C1  UNL     1     -34.160   7.181   5.113  1.00 20.00     0.185 C 
HETATM    2  C2  UNL     1     -33.696   5.751   4.852  1.00 20.00     0.087 C 
HETATM    3  C3  UNL     1     -33.726   5.726   3.344  1.00 20.00     0.340 C 
HETATM    4  C4  UNL     1     -33.168   7.081   3.020  1.00 20.00     0.420 C 
HETATM    5  C5  UNL     1     -34.556   4.693   5.518  1.00 20.00     0.019 C 
HETATM    6  O6  UNL     1     -33.681   7.979   4.008  1.00 20.00    -0.321 OA
HETATM    7  F7  UNL     1     -33.020   4.722   2.807  1.00 20.00    -0.196 F 
HETATM    8  F8  UNL     1     -34.999   5.637   2.894  1.00 20.00    -0.196 F 
HETATM    9  F9  UNL     1     -31.819   7.088   3.126  1.00 20.00    -0.169 F 
HETATM   10  F10 UNL     1     -33.494   7.499   1.783  1.00 20.00    -0.169 F 
ENDROOT
TORSDOF 0
