REMARK  3 active torsions:
REMARK  status: ('A' for Active; 'I' for Inactive)
REMARK    1  A    between atoms: C2_2  and  N7_7 
REMARK    2  A    between atoms: C4_4  and  C5_5 
REMARK    3  A    between atoms: C5_5  and  N7_7 
ROOT
HETATM    1  C1  UNL     1     -32.788   8.203   0.806  1.00 20.00     0.060 C 
HETATM    2  C4  UNL     1     -32.611   7.349   1.990  1.00 20.00     0.143 C 
HETATM    3  N6  UNL     1     -32.926   8.879  -0.127  1.00 20.00    -0.197 NA
ENDROOT
BRANCH   2   4
HETATM    4  C5  UNL     1     -33.609   6.196   2.014  1.00 20.00     0.138 C 
BRANCH   4   5
HETATM    5  N7  UNL     1     -33.417   5.364   3.205  1.00 20.00    -0.366 N 
HETATM    6  C3  UNL     1     -32.314   4.401   3.136  1.00 20.00     0.151 C 
BRANCH   5   7
HETATM    7  C2  UNL     1     -34.084   5.616   4.378  1.00 20.00     0.167 C 
HETATM    8  S8  UNL     1     -34.924   4.366   5.229  1.00 20.00    -0.048 SA
HETATM    9  S9  UNL     1     -34.119   7.197   5.079  1.00 20.00    -0.048 SA
ENDBRANCH   5   7
ENDBRANCH   4   5
ENDBRANCH   2   4
TORSDOF 3
