REMARK  1 active torsions:
REMARK  status: ('A' for Active; 'I' for Inactive)
REMARK    1  A    between atoms: C9_9  and  N10_10 
ROOT
HETATM    1  C1  UNL     1     -34.072   5.459   4.803  1.00 20.00     0.072 A 
HETATM    2  C2  UNL     1     -34.361   4.809   3.672  1.00 20.00    -0.002 A 
HETATM    3  C5  UNL     1     -33.302   6.659   4.424  1.00 20.00     0.243 A 
HETATM    4  C8  UNL     1     -33.830   5.485   2.457  1.00 20.00     0.154 A 
HETATM    5  N10 UNL     1     -33.184   6.634   3.042  1.00 20.00    -0.340 N 
HETATM    6  O11 UNL     1     -32.878   7.478   5.222  1.00 20.00    -0.268 OA
ENDROOT
BRANCH   5   7
HETATM    7  C9  UNL     1     -32.496   7.639   2.279  1.00 20.00     0.094 C 
HETATM    8  C6  UNL     1     -32.528   7.360   0.772  1.00 20.00     0.052 C 
HETATM    9  C3  UNL     1     -32.629   8.729   0.186  1.00 20.00    -0.029 C 
HETATM   10  C4  UNL     1     -32.941   9.643   1.109  1.00 20.00    -0.029 C 
HETATM   11  C7  UNL     1     -33.101   9.035   2.463  1.00 20.00     0.052 C 
ENDBRANCH   5   7
TORSDOF 1
