REMARK  0 active torsions:
REMARK  status: ('A' for Active; 'I' for Inactive)
ROOT
HETATM    1  C1  UNL     1     -34.106   6.726   3.772  1.00 20.00     0.251 C 
HETATM    2  C2  UNL     1     -34.956   5.560   4.240  1.00 20.00     0.251 C 
HETATM    3  C3  UNL     1     -33.758   6.410   2.330  1.00 20.00     0.271 C 
HETATM    4  C4  UNL     1     -34.161   4.303   3.937  1.00 20.00     0.271 C 
HETATM    5  F5  UNL     1     -32.961   6.762   4.509  1.00 20.00    -0.242 F 
HETATM    6  F6  UNL     1     -35.194   5.655   5.569  1.00 20.00    -0.242 F 
HETATM    7  F7  UNL     1     -32.680   7.128   1.939  1.00 20.00    -0.235 F 
HETATM    8  F8  UNL     1     -33.159   4.176   4.847  1.00 20.00    -0.235 F 
HETATM    9  S9  UNL     1     -33.426   4.627   2.305  1.00 20.00    -0.089 SA
ENDROOT
TORSDOF 0
