REMARK  1 active torsions:
REMARK  status: ('A' for Active; 'I' for Inactive)
REMARK    1  A    between atoms: C6_6  and  N10_10 
ROOT
HETATM    1  C1  UNL     1     -33.087   7.715   1.434  1.00 20.00     0.066 C 
HETATM    2  C2  UNL     1     -34.157   5.343   3.500  1.00 20.00    -0.054 C 
HETATM    3  C3  UNL     1     -34.626   4.390   4.308  1.00 20.00     0.016 C 
HETATM    4  C4  UNL     1     -33.822   5.362   2.022  1.00 20.00     0.057 C 
HETATM    5  C5  UNL     1     -32.979   6.620   2.379  1.00 20.00     0.134 C 
HETATM    6  C6  UNL     1     -33.798   6.801   3.694  1.00 20.00     0.268 C 
HETATM    7  N9  UNL     1     -33.173   8.591   0.678  1.00 20.00    -0.197 NA
ENDROOT
BRANCH   6   8
HETATM    8  N10 UNL     1     -32.852   7.028   4.783  1.00 20.00     0.089 N 
HETATM    9  C7  UNL     1     -33.541   7.012   6.074  1.00 20.00     0.310 C 
HETATM   10  C8  UNL     1     -32.150   8.299   4.596  1.00 20.00     0.310 C 
ENDBRANCH   6   8
TORSDOF 1
