REMARK  2 active torsions:
REMARK  status: ('A' for Active; 'I' for Inactive)
REMARK    1  A    between atoms: C1_1  and  C4_4 
REMARK    2  A    between atoms: C1_1  and  C6_6 
ROOT
HETATM    1  C1  UNL     1     -33.507   6.727   4.445  1.00 20.00     0.145 C 
HETATM    2  O7  UNL     1     -32.690   7.251   5.195  1.00 20.00    -0.296 OA
ENDROOT
BRANCH   1   3
HETATM    3  C4  UNL     1     -33.439   6.990   2.977  1.00 20.00     0.057 A 
HETATM    4  C2  UNL     1     -32.130   7.397   2.386  1.00 20.00     0.013 A 
HETATM    5  C3  UNL     1     -32.686   6.031   2.118  1.00 20.00     0.013 A 
ENDBRANCH   1   3
BRANCH   1   6
HETATM    6  C6  UNL     1     -34.599   5.792   4.907  1.00 20.00     0.123 C 
HETATM    7  C5  UNL     1     -34.523   5.499   6.393  1.00 20.00     0.030 C 
HETATM    8 BR8  UNL     1     -34.336   4.145   3.902  1.00 20.00    -0.084 Br
ENDBRANCH   1   6
TORSDOF 2
