REMARK  2 active torsions:
REMARK  status: ('A' for Active; 'I' for Inactive)
REMARK    1  A    between atoms: C2_2  and  C5_5 
REMARK    2  A    between atoms: C2_2  and  C9_9 
ROOT
HETATM    1  C1  UNL     1     -32.720   7.018   3.004  1.00 20.00     0.225 C 
HETATM    2  C2  UNL     1     -33.488   5.990   3.244  1.00 20.00    -0.014 C 
HETATM    3  O10 UNL     1     -32.028   7.945   2.789  1.00 20.00    -0.284 OA
ENDROOT
BRANCH   2   4
HETATM    4  C5  UNL     1     -33.669   5.058   2.107  1.00 20.00     0.019 A 
HETATM    5  C3  UNL     1     -32.603   5.005   1.065  1.00 20.00     0.010 A 
HETATM    6  C4  UNL     1     -32.775   3.867   2.025  1.00 20.00     0.010 A 
ENDBRANCH   2   4
BRANCH   2   7
HETATM    7  C9  UNL     1     -34.140   5.682   4.596  1.00 20.00    -0.024 C 
HETATM    8  C6  UNL     1     -33.608   4.337   5.125  1.00 20.00     0.019 C 
HETATM    9  C7  UNL     1     -35.675   5.603   4.466  1.00 20.00     0.019 C 
HETATM   10  C8  UNL     1     -33.823   6.773   5.644  1.00 20.00     0.019 C 
ENDBRANCH   2   7
TORSDOF 2
