REMARK  1 active torsions:
REMARK  status: ('A' for Active; 'I' for Inactive)
REMARK    1  A    between atoms: C1_1  and  C6_6 
ROOT
HETATM    1  C2  UNL     1     -33.891   6.381   6.540  1.00 20.00     0.002 C 
HETATM    2  C3  UNL     1     -33.110   6.801   5.303  1.00 20.00     0.013 C 
HETATM    3  C4  UNL     1     -34.323   4.912   6.507  1.00 20.00     0.020 C 
HETATM    4  C5  UNL     1     -34.882   5.398   4.074  1.00 20.00     0.033 C 
HETATM    5  C6  UNL     1     -33.934   6.608   4.027  1.00 20.00     0.073 C 
HETATM    6  C7  UNL     1     -34.494   4.330   5.099  1.00 20.00     0.083 C 
HETATM    7 CL10 UNL     1     -33.002   3.478   4.584  1.00 20.00    -0.125 Cl
ENDROOT
BRANCH   5   8
HETATM    8  C1  UNL     1     -33.028   6.512   2.834  1.00 20.00     0.223 C 
HETATM    9  O8  UNL     1     -32.633   5.431   2.409  1.00 20.00    -0.279 OA
HETATM   10 CL9  UNL     1     -32.643   8.075   2.179  1.00 20.00    -0.043 Cl
ENDBRANCH   5   8
TORSDOF 1
