REMARK  1 active torsions:
REMARK  status: ('A' for Active; 'I' for Inactive)
REMARK    1  A    between atoms: C7_7  and  C10_10 
ROOT
HETATM    1  C1  UNL     1     -32.391   8.615   0.206  1.00 20.00     0.015 C 
HETATM    2  C2  UNL     1     -32.914   7.854   0.974  1.00 20.00    -0.085 C 
HETATM    3  C3  UNL     1     -33.477   4.603   2.819  1.00 20.00    -0.018 C 
HETATM    4  C4  UNL     1     -33.932   5.087   3.987  1.00 20.00    -0.059 C 
HETATM    5  C5  UNL     1     -33.037   5.501   1.703  1.00 20.00     0.072 C 
HETATM    6  C6  UNL     1     -33.553   6.925   1.914  1.00 20.00     0.203 C 
HETATM    7  C7  UNL     1     -33.980   6.585   4.238  1.00 20.00     0.151 C 
HETATM    8  C8  UNL     1     -34.449   4.173   5.060  1.00 20.00     0.046 C 
HETATM    9  O11 UNL     1     -33.241   7.326   3.249  1.00 20.00    -0.364 OA
ENDROOT
BRANCH   7  10
HETATM   10  C10 UNL     1     -33.389   6.989   5.587  1.00 20.00     0.032 C 
HETATM   11  C9  UNL     1     -33.427   8.468   5.786  1.00 20.00     0.008 C 
ENDBRANCH   7  10
TORSDOF 1
