REMARK  0 active torsions:
REMARK  status: ('A' for Active; 'I' for Inactive)
ROOT
HETATM    1  C1  UNL     1     -32.234   7.220   1.359  1.00 20.00     0.017 C 
HETATM    2  C2  UNL     1     -32.900   6.895   2.303  1.00 20.00    -0.082 C 
HETATM    3  C3  UNL     1     -33.690   6.508   3.426  1.00 20.00     0.000 C 
HETATM    4  C4  UNL     1     -33.390   6.923   4.675  1.00 20.00    -0.041 C 
HETATM    5  C5  UNL     1     -34.893   5.628   3.165  1.00 20.00     0.083 C 
HETATM    6  C6  UNL     1     -34.231   6.492   5.865  1.00 20.00     0.307 C 
HETATM    7  C7  UNL     1     -35.862   5.550   4.361  1.00 20.00     0.223 C 
HETATM    8  C8  UNL     1     -32.244   7.835   5.031  1.00 20.00     0.046 C 
HETATM    9  C9  UNL     1     -36.949   4.499   4.116  1.00 20.00     0.043 C 
HETATM   10  C10 UNL     1     -34.464   4.080   5.773  1.00 20.00     0.310 C 
HETATM   11  N11 UNL     1     -35.153   5.365   5.641  1.00 20.00     0.092 N 
ENDROOT
TORSDOF 0
