REMARK  2 active torsions:
REMARK  status: ('A' for Active; 'I' for Inactive)
REMARK    1  A    between atoms: C7_7  and  O11_11 
REMARK    2  A    between atoms: C10_10  and  O11_11 
ROOT
HETATM    1  C1  UNL     1     -33.020   6.953   4.312  1.00 20.00    -0.019 C 
HETATM    2  C2  UNL     1     -34.327   6.671   4.142  1.00 20.00    -0.019 C 
HETATM    3  C3  UNL     1     -32.417   4.885   3.120  1.00 20.00    -0.019 C 
HETATM    4  C4  UNL     1     -33.726   4.602   2.950  1.00 20.00    -0.019 C 
HETATM    5  C5  UNL     1     -32.284   6.400   3.101  1.00 20.00     0.060 C 
HETATM    6  C6  UNL     1     -34.454   5.932   2.819  1.00 20.00     0.060 C 
HETATM    7  C7  UNL     1     -33.356   6.666   2.030  1.00 20.00     0.144 C 
ENDROOT
BRANCH   7   8
HETATM    8  O11 UNL     1     -33.612   8.040   1.804  1.00 20.00    -0.379 OA
BRANCH   8   9
HETATM    9  C10 UNL     1     -32.880   8.536   0.689  1.00 20.00     0.114 C 
HETATM   10  C8  UNL     1     -33.698   8.333  -0.578  1.00 20.00     0.039 C 
HETATM   11  C9  UNL     1     -32.548  10.002   0.920  1.00 20.00     0.039 C 
ENDBRANCH   8   9
ENDBRANCH   7   8
TORSDOF 2
