REMARK  1 active torsions:
REMARK  status: ('A' for Active; 'I' for Inactive)
REMARK    1  A    between atoms: C4_4  and  C5_5 
ROOT
HETATM    1  C1  UNL     1     -33.287   4.705   2.889  1.00 20.00    -0.021 C 
HETATM    2  C2  UNL     1     -33.840   4.420   4.075  1.00 20.00    -0.025 C 
HETATM    3  C3  UNL     1     -32.799   7.712   3.685  1.00 20.00    -0.015 C 
HETATM    4  C4  UNL     1     -33.139   7.174   2.500  1.00 20.00    -0.009 C 
HETATM    5  C6  UNL     1     -33.093   7.177   5.063  1.00 20.00     0.028 C 
HETATM    6  C7  UNL     1     -34.456   6.521   5.353  1.00 20.00     0.012 C 
HETATM    7  C8  UNL     1     -35.267   5.950   3.019  1.00 20.00     0.022 C 
HETATM    8  C9  UNL     1     -33.932   5.915   2.268  1.00 20.00     0.045 C 
HETATM    9  C10 UNL     1     -34.923   5.405   4.409  1.00 20.00     0.009 C 
ENDROOT
BRANCH   4  10
HETATM   10  C5  UNL     1     -32.683   7.908   1.310  1.00 20.00     0.152 C 
HETATM   11  C11 UNL     1     -31.774   7.193   0.347  1.00 20.00     0.096 C 
HETATM   12  O12 UNL     1     -33.035   9.072   1.125  1.00 20.00    -0.293 OA
ENDBRANCH   4  10
TORSDOF 1
