REMARK  4 active torsions:
REMARK  status: ('A' for Active; 'I' for Inactive)
REMARK    1  A    between atoms: C1_1  and  C3_3 
REMARK    2  A    between atoms: C1_1  and  O10_10 
REMARK    3  A    between atoms: C4_4  and  C7_7 
REMARK    4  A    between atoms: C7_7  and  C8_8 
ROOT
HETATM    1  C2  UNL     1     -32.017   7.351   2.830  1.00 20.00     0.020 A 
HETATM    2  C3  UNL     1     -32.848   6.222   2.279  1.00 20.00     0.090 A 
HETATM    3  C4  UNL     1     -33.290   7.660   2.087  1.00 20.00    -0.000 A 
ENDROOT
BRANCH   2   4
HETATM    4  C1  UNL     1     -33.597   5.364   3.203  1.00 20.00     0.263 C 
HETATM    5  O9  UNL     1     -33.771   4.164   3.036  1.00 20.00    -0.265 OA
BRANCH   4   6
HETATM    6  O10 UNL     1     -34.054   6.110   4.249  1.00 20.00    -0.326 OA
HETATM    7  C6  UNL     1     -34.808   5.393   5.232  1.00 20.00     0.213 C 
ENDBRANCH   4   6
ENDBRANCH   2   4
BRANCH   3   8
HETATM    8  C7  UNL     1     -33.237   8.284   0.736  1.00 20.00     0.005 C 
BRANCH   8   9
HETATM    9  C8  UNL     1     -32.444   7.437  -0.275  1.00 20.00    -0.004 C 
HETATM   10  C5  UNL     1     -32.420   8.057  -1.663  1.00 20.00     0.005 C 
ENDBRANCH   8   9
ENDBRANCH   3   8
TORSDOF 4
