REMARK  5 active torsions:
REMARK  status: ('A' for Active; 'I' for Inactive)
REMARK    1  A    between atoms: C1_1  and  C5_5 
REMARK    2  A    between atoms: C5_5  and  C8_8 
REMARK    3  A    between atoms: C6_6  and  N9_9 
REMARK    4  A    between atoms: C7_7  and  N9_9 
REMARK    5  A    between atoms: C8_8  and  N9_9 
ROOT
HETATM    1  C1  UNL     1     -32.986   8.151   0.627  1.00 20.00    -0.092 C 
HETATM    2  C2  UNL     1     -33.245   8.727  -0.394  1.00 20.00    -0.022 C 
HETATM    3  S10 UNL     1     -33.633   9.587  -1.915  1.00 20.00     0.008 SA
ENDROOT
BRANCH   1   4
HETATM    4  C5  UNL     1     -32.668   7.445   1.877  1.00 20.00     0.122 C 
BRANCH   4   5
HETATM    5  C8  UNL     1     -33.910   6.888   2.558  1.00 20.00     0.246 C 
BRANCH   5   6
HETATM    6  N9  UNL     1     -33.526   6.127   3.794  1.00 20.00    -0.071 N 
HETATM    7  H25 UNL     1     -32.907   5.362   3.493  1.00 20.00     0.279 HD
BRANCH   6   8
HETATM    8  C6  UNL     1     -32.736   6.973   4.753  1.00 20.00     0.230 C 
HETATM    9  C3  UNL     1     -33.599   8.120   5.232  1.00 20.00     0.034 C 
ENDBRANCH   6   8
BRANCH   6  10
HETATM   10  C7  UNL     1     -34.715   5.490   4.455  1.00 20.00     0.230 C 
HETATM   11  C4  UNL     1     -34.249   4.675   5.641  1.00 20.00     0.034 C 
ENDBRANCH   6  10
ENDBRANCH   5   6
ENDBRANCH   4   5
ENDBRANCH   1   4
TORSDOF 5
