REMARK  0 active torsions:
REMARK  status: ('A' for Active; 'I' for Inactive)
ROOT
HETATM    1  C1  UNL     1     -34.432   5.734   5.248  1.00 20.00     0.026 C 
HETATM    2  C2  UNL     1     -33.315   6.675   3.679  1.00 20.00     0.017 C 
HETATM    3  C3  UNL     1     -35.103   5.634   6.401  1.00 20.00     0.040 C 
HETATM    4  C4  UNL     1     -34.516   4.728   4.138  1.00 20.00     0.073 C 
HETATM    5  C5  UNL     1     -33.956   5.513   2.944  1.00 20.00    -0.002 C 
HETATM    6  C6  UNL     1     -32.422   7.658   2.988  1.00 20.00     0.066 C 
HETATM    7  C7  UNL     1     -32.941   4.689   2.157  1.00 20.00     0.021 C 
HETATM    8  C8  UNL     1     -35.074   6.025   2.033  1.00 20.00     0.021 C 
HETATM    9  N9  UNL     1     -33.610   6.786   4.937  1.00 20.00    -0.263 NA
ENDROOT
TORSDOF 0
