REMARK  1 active torsions:
REMARK  status: ('A' for Active; 'I' for Inactive)
REMARK    1  A    between atoms: C2_2  and  C4_4 
ROOT
HETATM    1  C1  UNL     1     -33.631   5.029   3.009  1.00 20.00     0.318 A 
HETATM    2  C2  UNL     1     -34.121   6.093   3.962  1.00 20.00     0.357 A 
HETATM    3  C3  UNL     1     -32.830   7.186   2.214  1.00 20.00     0.310 C 
HETATM    4  N5  UNL     1     -32.828   6.213   3.300  1.00 20.00     0.102 N 
ENDROOT
BRANCH   2   5
HETATM    5  C4  UNL     1     -34.158   5.829   5.426  1.00 20.00     0.419 C 
HETATM    6  F6  UNL     1     -35.315   5.228   5.796  1.00 20.00    -0.169 F 
HETATM    7  F7  UNL     1     -33.142   5.018   5.812  1.00 20.00    -0.169 F 
HETATM    8  F8  UNL     1     -34.052   6.975   6.142  1.00 20.00    -0.169 F 
ENDBRANCH   2   5
TORSDOF 1
