REMARK  2 active torsions:
REMARK  status: ('A' for Active; 'I' for Inactive)
REMARK    1  A    between atoms: C1_1  and  C4_4 
REMARK    2  A    between atoms: C2_2  and  N10_10 
ROOT
HETATM    1  C5  UNL     1     -35.111   5.309   6.110  1.00 20.00     0.003 C 
HETATM    2  C6  UNL     1     -34.896   4.435   4.878  1.00 20.00     0.029 C 
HETATM    3  C7  UNL     1     -33.935   6.257   6.328  1.00 20.00     0.029 C 
HETATM    4  C8  UNL     1     -34.598   5.269   3.640  1.00 20.00     0.251 C 
HETATM    5  C9  UNL     1     -33.640   7.085   5.085  1.00 20.00     0.251 C 
HETATM    6  N10 UNL     1     -33.417   6.161   3.917  1.00 20.00    -0.006 N 
HETATM    7  H24 UNL     1     -32.609   5.561   4.135  1.00 20.00     0.297 HD
ENDROOT
BRANCH   6   8
HETATM    8  C2  UNL     1     -33.034   6.920   2.711  1.00 20.00     0.118 C 
HETATM    9  C1  UNL     1     -32.723   7.537   1.729  1.00 20.00    -0.049 C 
BRANCH   9  10
HETATM   10  C4  UNL     1     -32.350   8.263   0.567  1.00 20.00     0.056 C 
HETATM   11  C3  UNL     1     -33.016   9.352   0.171  1.00 20.00     0.021 C 
ENDBRANCH   9  10
ENDBRANCH   6   8
TORSDOF 2
