REMARK  0 active torsions:
REMARK  status: ('A' for Active; 'I' for Inactive)
ROOT
HETATM    1  C1  UNL     1     -33.457   4.338   2.623  1.00 20.00     0.012 C 
HETATM    2  C2  UNL     1     -32.485   5.514   2.517  1.00 20.00     0.077 C 
HETATM    3  C3  UNL     1     -34.079   4.256   4.016  1.00 20.00     0.082 C 
HETATM    4  C4  UNL     1     -34.251   6.776   3.976  1.00 20.00     0.264 A 
HETATM    5  C5  UNL     1     -33.065   6.787   3.048  1.00 20.00     0.237 A 
HETATM    6  C6  UNL     1     -34.922   5.490   4.302  1.00 20.00     0.274 C 
HETATM    7  O7  UNL     1     -32.922   6.929   4.475  1.00 20.00    -0.332 OA
HETATM    8  F8  UNL     1     -32.856   7.939   2.302  1.00 20.00    -0.209 F 
HETATM    9  F9  UNL     1     -35.292   5.491   5.609  1.00 20.00    -0.203 F 
HETATM   10  F10 UNL     1     -36.072   5.413   3.580  1.00 20.00    -0.203 F 
ENDROOT
TORSDOF 0
