REMARK  2 active torsions:
REMARK  status: ('A' for Active; 'I' for Inactive)
REMARK    1  A    between atoms: C2_2  and  C3_3 
REMARK    2  A    between atoms: C3_3  and  C6_6 
ROOT
HETATM    1  C3  UNL     1     -33.428   6.445   4.262  1.00 20.00     0.170 C 
HETATM    2  O7  UNL     1     -32.787   7.159   5.026  1.00 20.00    -0.291 OA
ENDROOT
BRANCH   1   3
HETATM    3  C2  UNL     1     -33.023   6.232   2.839  1.00 20.00     0.047 C 
HETATM    4  C1  UNL     1     -32.722   5.020   2.352  1.00 20.00     0.035 C 
HETATM    5 BR8  UNL     1     -32.923   7.754   1.750  1.00 20.00    -0.048 Br
ENDBRANCH   1   3
BRANCH   1   6
HETATM    6  C6  UNL     1     -34.648   5.747   4.763  1.00 20.00     0.061 A 
HETATM    7  C4  UNL     1     -34.513   4.348   5.266  1.00 20.00     0.013 A 
HETATM    8  C5  UNL     1     -34.760   5.473   6.226  1.00 20.00     0.013 A 
ENDBRANCH   1   6
TORSDOF 2
