REMARK  2 active torsions:
REMARK  status: ('A' for Active; 'I' for Inactive)
REMARK    1  A    between atoms: C3_3  and  C8_8 
REMARK    2  A    between atoms: C9_9  and  N11_11 
ROOT
HETATM    1  C1  UNL     1     -32.908   8.236   0.682  1.00 20.00     0.089 C 
HETATM    2  C9  UNL     1     -31.856   7.598   1.470  1.00 20.00     0.395 C 
HETATM    3  N10 UNL     1     -33.741   8.744   0.053  1.00 20.00    -0.195 NA
ENDROOT
BRANCH   2   4
HETATM    4  N11 UNL     1     -32.412   6.965   2.666  1.00 20.00     0.101 N 
HETATM    5  C6  UNL     1     -33.080   7.963   3.512  1.00 20.00     0.274 C 
HETATM    6  C4  UNL     1     -33.620   7.325   4.794  1.00 20.00     0.039 C 
HETATM    7  C8  UNL     1     -34.559   6.161   4.481  1.00 20.00     0.011 C 
HETATM    8  C5  UNL     1     -33.883   5.174   3.532  1.00 20.00     0.039 C 
HETATM    9  C7  UNL     1     -33.334   5.883   2.293  1.00 20.00     0.274 C 
BRANCH   7  10
HETATM   10  C3  UNL     1     -34.949   5.457   5.744  1.00 20.00    -0.032 C 
HETATM   11  C2  UNL     1     -34.080   4.866   6.570  1.00 20.00     0.007 C 
ENDBRANCH   7  10
ENDBRANCH   2   4
TORSDOF 2
