REMARK  0 active torsions:
REMARK  status: ('A' for Active; 'I' for Inactive)
ROOT
HETATM    1  C1  UNL     1     -33.958   6.373   6.307  1.00 20.00     0.015 C 
HETATM    2  C2  UNL     1     -32.831   8.344   0.821  1.00 20.00     0.015 C 
HETATM    3  C3  UNL     1     -34.054   6.535   5.121  1.00 20.00    -0.082 C 
HETATM    4  C4  UNL     1     -32.826   7.639   1.793  1.00 20.00    -0.082 C 
HETATM    5  C5  UNL     1     -34.173   6.732   3.669  1.00 20.00     0.243 C 
HETATM    6  C6  UNL     1     -32.819   6.775   2.982  1.00 20.00     0.243 C 
HETATM    7  C7  UNL     1     -33.829   4.765   2.543  1.00 20.00     0.160 C 
HETATM    8  C8  UNL     1     -33.748   3.484   3.365  1.00 20.00     0.078 C 
HETATM    9  C9  UNL     1     -34.178   4.452   1.092  1.00 20.00     0.078 C 
HETATM   10  O10 UNL     1     -34.848   5.615   3.084  1.00 20.00    -0.335 OA
HETATM   11  O11 UNL     1     -32.557   5.423   2.595  1.00 20.00    -0.335 OA
ENDROOT
TORSDOF 0
