REMARK  2 active torsions:
REMARK  status: ('A' for Active; 'I' for Inactive)
REMARK    1  A    between atoms: C3_3  and  C6_6 
REMARK    2  A    between atoms: C7_7  and  O11_11 
ROOT
HETATM    1  C1  UNL     1     -34.181   3.677   3.192  1.00 20.00    -0.023 C 
HETATM    2  C2  UNL     1     -34.105   3.620   4.532  1.00 20.00    -0.085 C 
HETATM    3  C4  UNL     1     -33.872   4.906   2.392  1.00 20.00     0.042 C 
HETATM    4  C5  UNL     1     -33.718   4.821   5.358  1.00 20.00     0.071 C 
HETATM    5  C6  UNL     1     -33.183   6.015   3.202  1.00 20.00     0.084 C 
HETATM    6  C7  UNL     1     -33.797   6.173   4.611  1.00 20.00     0.068 C 
HETATM    7  C8  UNL     1     -34.390   2.358   5.290  1.00 20.00     0.043 C 
HETATM    8  C9  UNL     1     -35.243   6.693   4.588  1.00 20.00     0.047 C 
ENDROOT
BRANCH   6   9
HETATM    9  O11 UNL     1     -33.006   7.092   5.374  1.00 20.00    -0.389 OA
HETATM   10  H25 UNL     1     -33.411   7.124   6.251  1.00 20.00     0.210 HD
ENDBRANCH   6   9
BRANCH   5  11
HETATM   11  C3  UNL     1     -33.202   7.295   2.411  1.00 20.00     0.238 C 
HETATM   12  O10 UNL     1     -33.145   8.407   2.923  1.00 20.00    -0.306 OA
ENDBRANCH   5  11
TORSDOF 2
