REMARK  1 active torsions:
REMARK  status: ('A' for Active; 'I' for Inactive)
REMARK    1  A    between atoms: C5_5  and  C7_7 
ROOT
HETATM    1  C1  UNL     1     -34.892   4.650   5.851  1.00 20.00    -0.003 A 
HETATM    2  C2  UNL     1     -34.886   6.093   5.984  1.00 20.00    -0.003 A 
HETATM    3  C3  UNL     1     -34.567   4.345   4.581  1.00 20.00    -0.012 A 
HETATM    4  C4  UNL     1     -34.556   6.621   4.790  1.00 20.00    -0.012 A 
HETATM    5  C6  UNL     1     -34.751   5.698   2.373  1.00 20.00     0.032 A 
HETATM    6  C7  UNL     1     -33.279   5.628   2.723  1.00 20.00     0.072 A 
HETATM    7  C8  UNL     1     -34.321   5.564   3.796  1.00 20.00     0.006 A 
ENDROOT
BRANCH   6   8
HETATM    8  C5  UNL     1     -32.446   6.824   2.548  1.00 20.00     0.128 C 
HETATM    9  C9  UNL     1     -32.496   7.493   1.200  1.00 20.00     0.091 C 
HETATM   10  O10 UNL     1     -31.743   7.260   3.458  1.00 20.00    -0.298 OA
ENDBRANCH   6   8
TORSDOF 1
