REMARK  1 active torsions:
REMARK  status: ('A' for Active; 'I' for Inactive)
REMARK    1  A    between atoms: C1_1  and  C7_7 
ROOT
HETATM    1  C2  UNL     1     -33.961   3.813   3.902  1.00 20.00     0.004 C 
HETATM    2  C3  UNL     1     -33.950   4.553   5.234  1.00 20.00     0.037 C 
HETATM    3  C4  UNL     1     -33.113   4.530   2.852  1.00 20.00     0.016 C 
HETATM    4  C5  UNL     1     -33.519   6.731   4.034  1.00 20.00     0.053 C 
HETATM    5  C6  UNL     1     -34.369   6.007   5.072  1.00 20.00     0.171 C 
HETATM    6  C7  UNL     1     -33.489   6.014   2.672  1.00 20.00     0.012 C 
HETATM    7  C8  UNL     1     -34.823   6.167   1.931  1.00 20.00     0.023 C 
HETATM    8  F10 UNL     1     -34.217   6.636   6.270  1.00 20.00    -0.249 F 
ENDROOT
BRANCH   6   9
HETATM    9  C1  UNL     1     -32.437   6.670   1.814  1.00 20.00     0.240 C 
HETATM   10  O9  UNL     1     -32.465   7.855   1.497  1.00 20.00    -0.306 OA
ENDBRANCH   6   9
TORSDOF 1
