REMARK  3 active torsions:
REMARK  status: ('A' for Active; 'I' for Inactive)
REMARK    1  A    between atoms: C1_1  and  C7_7 
REMARK    2  A    between atoms: C1_1  and  N8_8 
REMARK    3  A    between atoms: C6_6  and  N8_8 
ROOT
HETATM    1  C1  UNL     1     -33.382   6.142   3.043  1.00 20.00     0.078 C 
HETATM    2  S9  UNL     1     -32.552   4.876   2.273  1.00 20.00    -0.065 SA
ENDROOT
BRANCH   1   3
HETATM    3  C7  UNL     1     -33.147   7.602   2.569  1.00 20.00     0.039 C 
HETATM    4  C3  UNL     1     -31.988   8.240   3.339  1.00 20.00     0.017 C 
HETATM    5  C4  UNL     1     -32.932   7.749   1.058  1.00 20.00     0.017 C 
ENDBRANCH   1   3
BRANCH   1   6
HETATM    6  N8  UNL     1     -34.253   5.961   4.133  1.00 20.00    -0.380 N 
HETATM    7  C5  UNL     1     -35.071   4.763   4.319  1.00 20.00     0.150 C 
BRANCH   6   8
HETATM    8  C6  UNL     1     -34.433   6.968   5.183  1.00 20.00     0.118 C 
HETATM    9  C2  UNL     1     -33.486   6.743   6.312  1.00 20.00     0.026 C 
ENDBRANCH   6   8
ENDBRANCH   1   6
TORSDOF 3
