REMARK  2 active torsions:
REMARK  status: ('A' for Active; 'I' for Inactive)
REMARK    1  A    between atoms: C1_1  and  C7_7 
REMARK    2  A    between atoms: C4_4  and  C7_7 
ROOT
HETATM    1  C6  UNL     1     -33.269   7.220   4.904  1.00 20.00     0.018 C 
HETATM    2  C7  UNL     1     -34.120   6.453   3.896  1.00 20.00     0.055 C 
ENDROOT
BRANCH   2   3
HETATM    3  C1  UNL     1     -33.250   5.820   2.814  1.00 20.00     0.127 C 
HETATM    4  C5  UNL     1     -32.376   6.751   2.012  1.00 20.00     0.091 C 
HETATM    5  O8  UNL     1     -33.268   4.613   2.575  1.00 20.00    -0.298 OA
ENDBRANCH   2   3
BRANCH   2   6
HETATM    6  C4  UNL     1     -34.948   5.378   4.591  1.00 20.00    -0.004 A 
HETATM    7  C2  UNL     1     -34.271   4.302   5.393  1.00 20.00     0.006 A 
HETATM    8  C3  UNL     1     -35.068   5.369   6.090  1.00 20.00     0.006 A 
ENDBRANCH   2   6
TORSDOF 2
