REMARK  2 active torsions:
REMARK  status: ('A' for Active; 'I' for Inactive)
REMARK    1  A    between atoms: C3_3  and  C9_9 
REMARK    2  A    between atoms: C9_9  and  N10_10 
ROOT
HETATM    1  C1  UNL     1     -33.712   6.034   3.628  1.00 20.00     0.040 C 
HETATM    2  C4  UNL     1     -33.480   7.226   4.529  1.00 20.00     0.057 C 
HETATM    3  C5  UNL     1     -34.674   7.403   5.457  1.00 20.00     0.006 C 
HETATM    4  C6  UNL     1     -34.935   6.162   6.317  1.00 20.00     0.004 C 
HETATM    5  C7  UNL     1     -34.519   4.850   5.647  1.00 20.00     0.043 C 
HETATM    6  C8  UNL     1     -34.594   4.917   4.129  1.00 20.00     0.217 C 
HETATM    7  N10 UNL     1     -33.174   5.957   2.455  1.00 20.00    -0.292 NA
HETATM    8  F11 UNL     1     -34.199   3.716   3.626  1.00 20.00    -0.243 F 
ENDROOT
BRANCH   7   9
HETATM    9  C9  UNL     1     -32.345   7.099   2.098  1.00 20.00     0.175 C 
BRANCH   9  10
HETATM   10  C3  UNL     1     -33.196   8.162   1.482  1.00 20.00    -0.015 C 
HETATM   11  C2  UNL     1     -33.006   8.653   0.252  1.00 20.00     0.008 C 
ENDBRANCH   9  10
ENDBRANCH   7   9
TORSDOF 2
