REMARK  3 active torsions:
REMARK  status: ('A' for Active; 'I' for Inactive)
REMARK    1  A    between atoms: C1_1  and  C7_7 
REMARK    2  A    between atoms: C1_1  and  O10_10 
REMARK    3  A    between atoms: C6_6  and  C7_7 
ROOT
HETATM    1  C4  UNL     1     -33.846   5.319   2.079  1.00 20.00     0.021 A 
HETATM    2  C5  UNL     1     -32.489   4.872   2.532  1.00 20.00     0.021 A 
HETATM    3  C7  UNL     1     -32.989   6.252   2.910  1.00 20.00     0.051 A 
ENDROOT
BRANCH   3   4
HETATM    4  C1  UNL     1     -33.401   6.440   4.325  1.00 20.00     0.267 C 
HETATM    5  O9  UNL     1     -32.812   7.160   5.120  1.00 20.00    -0.264 OA
BRANCH   4   6
HETATM    6  O10 UNL     1     -34.515   5.696   4.579  1.00 20.00    -0.326 OA
HETATM    7  C8  UNL     1     -35.023   5.785   5.914  1.00 20.00     0.213 C 
ENDBRANCH   4   6
ENDBRANCH   3   4
BRANCH   3   8
HETATM    8  C6  UNL     1     -32.362   7.505   2.269  1.00 20.00     0.004 A 
HETATM    9  C2  UNL     1     -32.862   8.092   0.978  1.00 20.00     0.006 A 
HETATM   10  C3  UNL     1     -33.047   8.843   2.267  1.00 20.00     0.006 A 
ENDBRANCH   3   8
TORSDOF 3
