REMARK  1 active torsions:
REMARK  status: ('A' for Active; 'I' for Inactive)
REMARK    1  A    between atoms: C6_6  and  N10_10 
ROOT
HETATM    1  C1  UNL     1     -34.834   4.421   3.682  1.00 20.00    -0.017 A 
HETATM    2  C2  UNL     1     -34.243   4.366   2.529  1.00 20.00     0.079 A 
HETATM    3  C3  UNL     1     -33.433   5.511   2.170  1.00 20.00     0.047 A 
HETATM    4  C4  UNL     1     -33.837   6.841   4.280  1.00 20.00     0.057 A 
HETATM    5  C5  UNL     1     -34.658   6.051   5.011  1.00 20.00     0.129 A 
HETATM    6  C6  UNL     1     -33.261   6.603   2.950  1.00 20.00     0.135 A 
HETATM    7  N9  UNL     1     -35.192   4.803   4.731  1.00 20.00    -0.218 NA
ENDROOT
BRANCH   6   8
HETATM    8  N10 UNL     1     -32.423   7.617   2.406  1.00 20.00    -0.049 N 
HETATM    9  C7  UNL     1     -33.209   8.878   2.210  1.00 20.00     0.276 C 
HETATM   10  C8  UNL     1     -31.217   7.804   3.276  1.00 20.00     0.276 C 
HETATM   11  H21 UNL     1     -32.091   7.313   1.479  1.00 20.00     0.285 HD
ENDBRANCH   6   8
TORSDOF 1
