REMARK  0 active torsions:
REMARK  status: ('A' for Active; 'I' for Inactive)
ROOT
HETATM    1  C1  UNL     1     -34.225   5.860   4.184  1.00 20.00     0.036 C 
HETATM    2  C2  UNL     1     -31.709   6.840   3.770  1.00 20.00     0.297 C 
HETATM    3  C3  UNL     1     -33.458   6.450   5.364  1.00 20.00     0.263 C 
HETATM    4  C4  UNL     1     -32.660   6.690   2.589  1.00 20.00     0.132 C 
HETATM    5  C5  UNL     1     -35.467   5.052   4.483  1.00 20.00     0.067 C 
HETATM    6  C6  UNL     1     -34.375   7.188   6.334  1.00 20.00     0.049 C 
HETATM    7  C7  UNL     1     -33.081   8.031   1.988  1.00 20.00     0.036 C 
HETATM    8  N8  UNL     1     -33.871   5.949   2.948  1.00 20.00    -0.290 NA
HETATM    9  N9  UNL     1     -32.444   7.393   4.896  1.00 20.00     0.095 N 
HETATM   10  H23 UNL     1     -31.802   7.608   5.658  1.00 20.00     0.316 HD
ENDROOT
TORSDOF 0
