REMARK  1 active torsions:
REMARK  status: ('A' for Active; 'I' for Inactive)
REMARK    1  A    between atoms: C3_3  and  C7_7 
ROOT
HETATM    1  C1  UNL     1     -33.092   4.480   5.475  1.00 20.00    -0.025 C 
HETATM    2  C2  UNL     1     -32.741   4.306   4.192  1.00 20.00    -0.020 C 
HETATM    3  C4  UNL     1     -34.667   6.303   4.923  1.00 20.00     0.021 C 
HETATM    4  C5  UNL     1     -35.035   4.033   4.302  1.00 20.00     0.022 C 
HETATM    5  C6  UNL     1     -34.550   4.870   5.491  1.00 20.00     0.010 C 
HETATM    6  C7  UNL     1     -34.302   6.111   3.422  1.00 20.00     0.067 C 
HETATM    7  C8  UNL     1     -33.967   4.594   3.346  1.00 20.00    -0.016 C 
HETATM    8  C10 UNL     1     -33.977   3.975   1.966  1.00 20.00     0.020 C 
ENDROOT
BRANCH   6   9
HETATM    9  C3  UNL     1     -33.175   7.002   2.995  1.00 20.00     0.128 C 
HETATM   10  C9  UNL     1     -33.162   7.433   1.554  1.00 20.00     0.091 C 
HETATM   11  O11 UNL     1     -32.305   7.365   3.785  1.00 20.00    -0.298 OA
ENDBRANCH   6   9
TORSDOF 1
