REMARK  1 active torsions:
REMARK  status: ('A' for Active; 'I' for Inactive)
REMARK    1  A    between atoms: C1_1  and  C5_5 
ROOT
HETATM    1  C2  UNL     1     -33.427   4.503   3.401  1.00 20.00     0.013 C 
HETATM    2  C3  UNL     1     -32.948   5.111   2.086  1.00 20.00     0.009 C 
HETATM    3  C4  UNL     1     -34.492   6.682   3.012  1.00 20.00     0.021 C 
HETATM    4  C5  UNL     1     -34.528   5.439   3.911  1.00 20.00     0.055 C 
HETATM    5  C6  UNL     1     -33.151   6.621   2.260  1.00 20.00    -0.047 C 
HETATM    6  C8  UNL     1     -33.232   7.334   0.908  1.00 20.00     0.015 C 
HETATM    7  C9  UNL     1     -32.018   7.247   3.089  1.00 20.00     0.015 C 
ENDROOT
BRANCH   4   8
HETATM    8  C1  UNL     1     -34.321   5.791   5.353  1.00 20.00     0.127 C 
HETATM    9  C7  UNL     1     -34.308   4.650   6.334  1.00 20.00     0.091 C 
HETATM   10  O10 UNL     1     -34.167   6.956   5.717  1.00 20.00    -0.298 OA
ENDBRANCH   4   8
TORSDOF 1
