REMARK  1 active torsions:
REMARK  status: ('A' for Active; 'I' for Inactive)
REMARK    1  A    between atoms: C2_2  and  C3_3 
ROOT
HETATM    1  C1  UNL     1     -33.039   5.714   2.099  1.00 20.00    -0.009 C 
HETATM    2  C2  UNL     1     -33.529   6.988   2.184  1.00 20.00    -0.007 C 
HETATM    3  C4  UNL     1     -35.239   5.420   5.100  1.00 20.00     0.002 C 
HETATM    4  C5  UNL     1     -34.197   4.543   4.350  1.00 20.00     0.009 C 
HETATM    5  C6  UNL     1     -35.239   6.790   4.352  1.00 20.00     0.015 C 
HETATM    6  C7  UNL     1     -34.124   5.297   3.055  1.00 20.00     0.021 C 
HETATM    7  C8  UNL     1     -33.898   6.755   3.638  1.00 20.00    -0.007 C 
HETATM    8  C10 UNL     1     -32.758   7.178   4.588  1.00 20.00     0.021 C 
ENDROOT
BRANCH   2   9
HETATM    9  C3  UNL     1     -33.197   8.132   1.349  1.00 20.00     0.152 C 
HETATM   10  C9  UNL     1     -33.874   9.453   1.637  1.00 20.00     0.096 C 
HETATM   11  O11 UNL     1     -32.385   8.029   0.420  1.00 20.00    -0.293 OA
ENDBRANCH   2   9
TORSDOF 1
