REMARK  1 active torsions:
REMARK  status: ('A' for Active; 'I' for Inactive)
REMARK    1  A    between atoms: C1_1  and  C2_2 
ROOT
HETATM    1  C2  UNL     1     -34.004   6.899   3.901  1.00 20.00     0.084 A 
HETATM    2  C3  UNL     1     -32.523   6.674   4.085  1.00 20.00     0.018 A 
HETATM    3  C4  UNL     1     -33.201   6.226   2.802  1.00 20.00     0.048 A 
HETATM    4  C6  UNL     1     -31.588   7.834   4.133  1.00 20.00     0.012 C 
HETATM    5  C7  UNL     1     -32.983   6.965   1.514  1.00 20.00     0.034 C 
HETATM    6 CL9  UNL     1     -33.349   4.461   2.589  1.00 20.00    -0.118 Cl
ENDROOT
BRANCH   1   7
HETATM    7  C1  UNL     1     -34.951   6.136   4.725  1.00 20.00     0.129 C 
HETATM    8  C5  UNL     1     -34.747   6.189   6.215  1.00 20.00     0.091 C 
HETATM    9  O8  UNL     1     -35.868   5.488   4.222  1.00 20.00    -0.298 OA
ENDBRANCH   1   7
TORSDOF 1
