REMARK  0 active torsions:
REMARK  status: ('A' for Active; 'I' for Inactive)
ROOT
HETATM    1  C1  UNL     1     -33.295   5.339   3.113  1.00 20.00     0.037 C 
HETATM    2  C2  UNL     1     -33.141   6.858   3.316  1.00 20.00     0.019 C 
HETATM    3  C3  UNL     1     -34.389   4.290   5.223  1.00 20.00     0.051 C 
HETATM    4  C4  UNL     1     -35.553   6.350   6.077  1.00 20.00     0.052 C 
HETATM    5  C5  UNL     1     -34.583   4.774   3.755  1.00 20.00     0.224 C 
HETATM    6  C6  UNL     1     -35.338   6.881   4.653  1.00 20.00     0.237 C 
HETATM    7  C7  UNL     1     -33.842   7.341   4.587  1.00 20.00     0.081 C 
HETATM    8  C8  UNL     1     -34.381   5.402   6.292  1.00 20.00     0.052 C 
HETATM    9  C9  UNL     1     -36.961   5.325   3.629  1.00 20.00     0.310 C 
HETATM   10  N10 UNL     1     -35.596   5.832   3.642  1.00 20.00     0.094 N 
HETATM   11  S11 UNL     1     -33.012   6.553   6.017  1.00 20.00    -0.157 SA
ENDROOT
TORSDOF 0
