REMARK  2 active torsions:
REMARK  status: ('A' for Active; 'I' for Inactive)
REMARK    1  A    between atoms: C3_3  and  C4_4 
REMARK    2  A    between atoms: C3_3  and  O10_10 
ROOT
HETATM    1  C1  UNL     1     -32.353   7.513   2.917  1.00 20.00    -0.066 A 
HETATM    2  C2  UNL     1     -31.325   7.998   3.581  1.00 20.00     0.016 C 
HETATM    3  C4  UNL     1     -33.722   7.171   2.966  1.00 20.00     0.126 A 
HETATM    4  C5  UNL     1     -32.808   6.999   1.678  1.00 20.00    -0.008 A 
HETATM    5  C6  UNL     1     -32.359   5.625   1.260  1.00 20.00     0.021 C 
HETATM    6  C7  UNL     1     -33.032   7.956   0.539  1.00 20.00     0.021 C 
ENDROOT
BRANCH   3   7
HETATM    7  C3  UNL     1     -34.063   6.013   3.794  1.00 20.00     0.267 C 
HETATM    8  O9  UNL     1     -34.231   4.883   3.357  1.00 20.00    -0.264 OA
BRANCH   7   9
HETATM    9  O10 UNL     1     -34.159   6.399   5.099  1.00 20.00    -0.326 OA
HETATM   10  C8  UNL     1     -34.490   5.360   6.025  1.00 20.00     0.213 C 
ENDBRANCH   7   9
ENDBRANCH   3   7
TORSDOF 2
