REMARK  2 active torsions:
REMARK  status: ('A' for Active; 'I' for Inactive)
REMARK    1  A    between atoms: C5_5  and  C7_7 
REMARK    2  A    between atoms: C5_5  and  O11_11 
ROOT
HETATM    1  C1  UNL     1     -32.114   7.502   2.304  1.00 20.00     0.003 A 
HETATM    2  C2  UNL     1     -32.296   6.457   3.116  1.00 20.00    -0.007 A 
HETATM    3  C3  UNL     1     -33.251   7.687   1.443  1.00 20.00    -0.066 A 
HETATM    4  C4  UNL     1     -33.409   8.678   0.561  1.00 20.00     0.019 C 
HETATM    5  C6  UNL     1     -34.229   6.571   1.708  1.00 20.00     0.061 A 
HETATM    6  C7  UNL     1     -33.631   5.803   2.907  1.00 20.00     0.066 A 
HETATM    7  C8  UNL     1     -33.516   4.306   2.642  1.00 20.00     0.031 C 
ENDROOT
BRANCH   6   8
HETATM    8  C5  UNL     1     -34.424   6.047   4.162  1.00 20.00     0.271 C 
HETATM    9  O10 UNL     1     -35.568   5.649   4.338  1.00 20.00    -0.264 OA
BRANCH   8  10
HETATM   10  O11 UNL     1     -33.673   6.766   5.043  1.00 20.00    -0.326 OA
HETATM   11  C9  UNL     1     -34.310   7.072   6.288  1.00 20.00     0.213 C 
ENDBRANCH   8  10
ENDBRANCH   6   8
TORSDOF 2
