REMARK  1 active torsions:
REMARK  status: ('A' for Active; 'I' for Inactive)
REMARK    1  A    between atoms: C3_3  and  C7_7 
ROOT
HETATM    1  C1  UNL     1     -32.754   7.553   5.083  1.00 20.00    -0.029 C 
HETATM    2  C2  UNL     1     -33.862   6.799   5.037  1.00 20.00    -0.026 C 
HETATM    3  C4  UNL     1     -31.764   7.640   3.959  1.00 20.00     0.039 C 
HETATM    4  C5  UNL     1     -33.049   5.743   2.881  1.00 20.00     0.020 C 
HETATM    5  C6  UNL     1     -34.223   5.927   3.863  1.00 20.00     0.004 C 
HETATM    6  C7  UNL     1     -32.273   7.041   2.641  1.00 20.00     0.059 C 
HETATM    7  C9  UNL     1     -34.729   4.563   4.336  1.00 20.00     0.014 C 
ENDROOT
BRANCH   6   8
HETATM    8  C3  UNL     1     -33.114   8.031   1.884  1.00 20.00     0.127 C 
HETATM    9  C8  UNL     1     -32.607   8.456   0.533  1.00 20.00     0.091 C 
HETATM   10  O10 UNL     1     -34.165   8.472   2.346  1.00 20.00    -0.298 OA
ENDBRANCH   6   8
TORSDOF 1
