REMARK  1 active torsions:
REMARK  status: ('A' for Active; 'I' for Inactive)
REMARK    1  A    between atoms: C2_2  and  C3_3 
ROOT
HETATM    1  C1  UNL     1     -33.440   6.914   1.511  1.00 20.00    -0.007 C 
HETATM    2  C2  UNL     1     -32.974   6.266   2.582  1.00 20.00    -0.012 C 
HETATM    3  C4  UNL     1     -31.635   8.199   2.379  1.00 20.00     0.022 C 
HETATM    4  C5  UNL     1     -31.944   7.035   3.342  1.00 20.00     0.019 C 
HETATM    5  C6  UNL     1     -32.796   8.264   1.354  1.00 20.00    -0.029 C 
HETATM    6  C8  UNL     1     -32.448   7.515   4.698  1.00 20.00     0.015 C 
HETATM    7  C9  UNL     1     -33.792   9.378   1.696  1.00 20.00     0.019 C 
HETATM    8  C10 UNL     1     -32.262   8.463  -0.067  1.00 20.00     0.019 C 
ENDROOT
BRANCH   2   9
HETATM    9  C3  UNL     1     -33.428   4.935   2.947  1.00 20.00     0.151 C 
HETATM   10  C7  UNL     1     -34.620   4.808   3.871  1.00 20.00     0.096 C 
HETATM   11  O11 UNL     1     -32.853   3.923   2.521  1.00 20.00    -0.293 OA
ENDBRANCH   2   9
TORSDOF 1
