REMARK  1 active torsions:
REMARK  status: ('A' for Active; 'I' for Inactive)
REMARK    1  A    between atoms: C2_2  and  C7_7 
ROOT
HETATM    1  C1  UNL     1     -32.968   7.775   1.758  1.00 20.00     0.132 C 
HETATM    2  C3  UNL     1     -31.755   7.716   2.665  1.00 20.00     0.084 C 
HETATM    3  C4  UNL     1     -33.575   5.448   2.030  1.00 20.00     0.013 C 
HETATM    4  C5  UNL     1     -32.365   5.292   2.973  1.00 20.00     0.007 C 
HETATM    5  C6  UNL     1     -34.054   6.876   2.322  1.00 20.00     0.068 C 
HETATM    6  C7  UNL     1     -33.751   7.071   3.809  1.00 20.00     0.088 C 
HETATM    7  C8  UNL     1     -32.277   6.668   3.676  1.00 20.00     0.006 C 
HETATM    8  O9  UNL     1     -33.045   8.417   0.722  1.00 20.00    -0.298 OA
ENDROOT
BRANCH   6   9
HETATM    9  C2  UNL     1     -34.555   6.207   4.729  1.00 20.00     0.224 C 
HETATM   10  O10 UNL     1     -35.471   5.502   4.316  1.00 20.00    -0.279 OA
HETATM   11 CL11 UNL     1     -34.030   6.344   6.380  1.00 20.00    -0.043 Cl
ENDBRANCH   6   9
TORSDOF 1
