REMARK  1 active torsions:
REMARK  status: ('A' for Active; 'I' for Inactive)
REMARK    1  A    between atoms: C3_3  and  N6_6 
ROOT
HETATM    1  C1  UNL     1     -33.168   5.920   3.225  1.00 20.00     0.216 C 
HETATM    2  C4  UNL     1     -34.507   4.873   4.779  1.00 20.00     0.158 C 
HETATM    3  C5  UNL     1     -34.090   3.897   3.703  1.00 20.00     0.198 C 
HETATM    4  N6  UNL     1     -33.758   6.053   4.465  1.00 20.00    -0.327 N 
HETATM    5  O7  UNL     1     -33.421   4.683   2.704  1.00 20.00    -0.325 OA
HETATM    6  S8  UNL     1     -32.261   6.973   2.318  1.00 20.00    -0.033 SA
ENDROOT
BRANCH   4   7
HETATM    7  C3  UNL     1     -33.727   7.134   5.298  1.00 20.00     0.083 C 
HETATM    8  C2  UNL     1     -34.339   7.154   6.484  1.00 20.00     0.030 C 
ENDBRANCH   4   7
TORSDOF 1
