REMARK  0 active torsions:
REMARK  status: ('A' for Active; 'I' for Inactive)
ROOT
HETATM    1  C1  UNL     1     -34.071   6.714   6.151  1.00 20.00     0.044 A 
HETATM    2  C2  UNL     1     -34.867   5.630   6.153  1.00 20.00     0.014 A 
HETATM    3  C3  UNL     1     -33.358   7.093   4.951  1.00 20.00     0.156 A 
HETATM    4  C4  UNL     1     -33.471   6.383   3.816  1.00 20.00     0.202 A 
HETATM    5  C5  UNL     1     -35.058   4.762   4.973  1.00 20.00     0.224 A 
HETATM    6  C6  UNL     1     -34.305   5.175   3.707  1.00 20.00     0.293 A 
HETATM    7  O7  UNL     1     -35.736   5.201   3.787  1.00 20.00    -0.328 OA
HETATM    8  F8  UNL     1     -32.577   8.191   4.996  1.00 20.00    -0.203 F 
HETATM    9  F9  UNL     1     -32.786   6.791   2.726  1.00 20.00    -0.201 F 
HETATM   10  F10 UNL     1     -33.759   4.133   2.966  1.00 20.00    -0.200 F 
ENDROOT
TORSDOF 0
