REMARK  2 active torsions:
REMARK  status: ('A' for Active; 'I' for Inactive)
REMARK    1  A    between atoms: C4_4  and  C5_5 
REMARK    2  A    between atoms: C5_5  and  C8_8 
ROOT
HETATM    1  C1  UNL     1     -32.953   8.736  -0.322  1.00 20.00    -0.027 A 
HETATM    2  C2  UNL     1     -32.695   7.425  -0.220  1.00 20.00    -0.026 A 
HETATM    3  C3  UNL     1     -33.395   8.849   2.156  1.00 20.00    -0.012 A 
HETATM    4  C4  UNL     1     -33.135   7.536   2.249  1.00 20.00    -0.003 A 
HETATM    5  C6  UNL     1     -33.330   9.594   0.852  1.00 20.00     0.054 A 
HETATM    6  C7  UNL     1     -32.754   6.675   1.081  1.00 20.00     0.069 A 
ENDROOT
BRANCH   4   7
HETATM    7  C5  UNL     1     -33.229   6.912   3.572  1.00 20.00     0.261 C 
HETATM    8  O9  UNL     1     -32.518   7.296   4.502  1.00 20.00    -0.283 OA
BRANCH   7   9
HETATM    9  C8  UNL     1     -34.220   5.795   3.737  1.00 20.00     0.455 C 
HETATM   10  F10 UNL     1     -34.897   5.531   2.591  1.00 20.00    -0.163 F 
HETATM   11  F11 UNL     1     -35.148   6.081   4.684  1.00 20.00    -0.163 F 
HETATM   12  F12 UNL     1     -33.618   4.638   4.112  1.00 20.00    -0.163 F 
ENDBRANCH   7   9
ENDBRANCH   4   7
TORSDOF 2
