REMARK  1 active torsions:
REMARK  status: ('A' for Active; 'I' for Inactive)
REMARK    1  A    between atoms: C1_1  and  C3_3 
ROOT
HETATM    1  C2  UNL     1     -33.301   4.236   4.102  1.00 20.00     0.090 C 
HETATM    2  C3  UNL     1     -33.812   6.409   2.594  1.00 20.00     0.195 C 
HETATM    3  C4  UNL     1     -34.449   4.948   4.805  1.00 20.00     0.054 C 
HETATM    4  C5  UNL     1     -34.323   4.860   6.319  1.00 20.00     0.022 C 
HETATM    5  S7  UNL     1     -33.394   4.669   2.346  1.00 20.00    -0.143 SA
HETATM    6  S8  UNL     1     -34.423   6.692   4.274  1.00 20.00    -0.139 SA
ENDROOT
BRANCH   2   7
HETATM    7  C1  UNL     1     -32.581   7.224   2.398  1.00 20.00     0.242 C 
HETATM    8  O6  UNL     1     -31.583   7.063   3.094  1.00 20.00    -0.278 OA
HETATM    9 CL9  UNL     1     -32.757   8.375   1.109  1.00 20.00    -0.042 Cl
ENDBRANCH   2   7
TORSDOF 1
