REMARK  0 active torsions:
REMARK  status: ('A' for Active; 'I' for Inactive)
ROOT
HETATM    1  C1  UNL     1     -35.427   5.828   3.778  1.00 20.00     0.015 C 
HETATM    2  C2  UNL     1     -34.372   5.858   3.206  1.00 20.00    -0.075 C 
HETATM    3  C3  UNL     1     -33.125   8.977   0.240  1.00 20.00     0.001 C 
HETATM    4  C4  UNL     1     -32.044   8.982   1.344  1.00 20.00     0.005 C 
HETATM    5  C5  UNL     1     -33.914   7.661   0.428  1.00 20.00     0.009 C 
HETATM    6  C6  UNL     1     -31.957   6.785   3.139  1.00 20.00     0.060 C 
HETATM    7  C7  UNL     1     -32.574   7.946   2.310  1.00 20.00    -0.003 C 
HETATM    8  C8  UNL     1     -32.969   6.840   1.284  1.00 20.00     0.040 C 
HETATM    9  C9  UNL     1     -33.104   5.894   2.518  1.00 20.00     0.162 C 
HETATM   10  O10 UNL     1     -32.667   4.587   2.247  1.00 20.00    -0.214 OA
ENDROOT
TORSDOF 0
