REMARK  1 active torsions:
REMARK  status: ('A' for Active; 'I' for Inactive)
REMARK    1  A    between atoms: C1_1  and  C3_3 
ROOT
HETATM    1  C2  UNL     1     -32.808   5.619   2.111  1.00 20.00     0.056 A 
HETATM    2  C3  UNL     1     -33.965   6.421   2.604  1.00 20.00     0.067 A 
HETATM    3  C4  UNL     1     -32.664   7.102   2.316  1.00 20.00     0.122 A 
HETATM    4 CL7  UNL     1     -31.616   7.653   3.618  1.00 20.00    -0.101 Cl
HETATM    5 CL8  UNL     1     -32.597   8.131   0.886  1.00 20.00    -0.101 Cl
ENDROOT
BRANCH   2   6
HETATM    6  C1  UNL     1     -34.415   6.224   4.018  1.00 20.00     0.090 C 
HETATM    7  N6  UNL     1     -34.670   5.045   4.467  1.00 20.00    -0.310 NA
HETATM    8  C5  UNL     1     -35.099   5.040   5.863  1.00 20.00     0.176 C 
ENDBRANCH   2   6
TORSDOF 1
