REMARK  2 active torsions:
REMARK  status: ('A' for Active; 'I' for Inactive)
REMARK    1  A    between atoms: C1_1  and  C7_7 
REMARK    2  A    between atoms: C1_1  and  C9_9 
ROOT
HETATM    1  C2  UNL     1     -34.319   4.240   5.564  1.00 20.00     0.000 C 
HETATM    2  C3  UNL     1     -34.459   5.691   6.011  1.00 20.00     0.001 C 
HETATM    3  C4  UNL     1     -34.569   4.089   4.068  1.00 20.00     0.001 C 
HETATM    4  C5  UNL     1     -33.548   6.621   5.209  1.00 20.00     0.017 C 
HETATM    5  C6  UNL     1     -33.658   5.003   3.247  1.00 20.00     0.017 C 
HETATM    6  C7  UNL     1     -33.722   6.465   3.696  1.00 20.00     0.018 C 
HETATM    7  C8  UNL     1     -35.058   7.072   3.270  1.00 20.00     0.023 C 
ENDROOT
BRANCH   6   8
HETATM    8  C1  UNL     1     -32.708   7.320   2.935  1.00 20.00     0.148 C 
HETATM    9  O10 UNL     1     -31.893   8.013   3.541  1.00 20.00    -0.296 OA
BRANCH   8  10
HETATM   10  C9  UNL     1     -32.789   7.247   1.427  1.00 20.00     0.193 C 
HETATM   11 CL11 UNL     1     -33.133   8.841   0.741  1.00 20.00    -0.123 Cl
ENDBRANCH   8  10
ENDBRANCH   6   8
TORSDOF 2
