REMARK  1 active torsions:
REMARK  status: ('A' for Active; 'I' for Inactive)
REMARK    1  A    between atoms: CA_2  and  C_3 
ROOT
ATOM      1  N   GLY A   1     -33.635   4.955   2.778  1.00 20.00    -0.249 NA
ATOM      2  CA  GLY A   1     -33.537   6.113   3.525  1.00 20.00     0.122 A 
HETATM    3  C1  UNK A   1     -34.217   4.028   3.507  1.00 20.00     0.168 A 
HETATM    4  C2  UNK A   1     -34.043   6.049   4.806  1.00 20.00     0.104 A 
HETATM    5  S3  UNK A   1     -34.043   7.328   5.917  1.00 20.00    -0.070 SA
HETATM    6  S4  UNK A   1     -34.672   4.481   5.098  1.00 20.00    -0.069 SA
ENDROOT
BRANCH   2   7
ATOM      7  C   GLY A   1     -32.925   7.264   2.908  1.00 20.00     0.292 C 
ATOM      8  O   GLY A   1     -32.484   7.267   1.748  1.00 20.00    -0.300 OA
ENDBRANCH   2   7
TORSDOF 1
