REMARK  2 active torsions:
REMARK  status: ('A' for Active; 'I' for Inactive)
REMARK    1  A    between atoms: C1_1  and  C8_8 
REMARK    2  A    between atoms: C2_2  and  C9_9 
ROOT
HETATM    1  C3  UNL     1     -34.353   6.384   4.573  1.00 20.00     0.142 C 
HETATM    2  C4  UNL     1     -34.069   7.081   5.916  1.00 20.00     0.081 C 
HETATM    3  C5  UNL     1     -32.706   7.502   5.321  1.00 20.00     0.032 C 
HETATM    4  C8  UNL     1     -32.873   6.501   4.141  1.00 20.00     0.135 C 
HETATM    5  O10 UNL     1     -35.353   5.925   4.063  1.00 20.00    -0.297 OA
ENDROOT
BRANCH   4   6
HETATM    6  C1  UNL     1     -32.701   7.056   2.821  1.00 20.00    -0.094 C 
HETATM    7  C2  UNL     1     -32.558   7.518   1.722  1.00 20.00    -0.101 C 
BRANCH   7   8
HETATM    8  C9  UNL     1     -32.383   8.080   0.384  1.00 20.00     0.065 A 
HETATM    9  C6  UNL     1     -32.854   9.476   0.147  1.00 20.00     0.018 A 
HETATM   10  C7  UNL     1     -33.605   8.317  -0.438  1.00 20.00     0.018 A 
ENDBRANCH   7   8
ENDBRANCH   4   6
TORSDOF 2
