REMARK  1 active torsions:
REMARK  status: ('A' for Active; 'I' for Inactive)
REMARK    1  A    between atoms: C8_8  and  O11_11 
ROOT
HETATM    1  C1  UNL     1     -34.146   5.278   2.810  1.00 20.00     0.005 C 
HETATM    2  C2  UNL     1     -34.963   4.901   3.810  1.00 20.00     0.005 C 
HETATM    3  C3  UNL     1     -33.318   6.479   2.868  1.00 20.00    -0.063 C 
HETATM    4  C4  UNL     1     -32.398   6.735   1.926  1.00 20.00     0.019 C 
HETATM    5  C5  UNL     1     -32.950   8.690   5.975  1.00 20.00     0.001 C 
HETATM    6  C6  UNL     1     -32.532   8.362   4.534  1.00 20.00     0.010 C 
HETATM    7  C7  UNL     1     -33.972   7.622   6.389  1.00 20.00     0.008 C 
HETATM    8  C8  UNL     1     -35.069   5.644   5.120  1.00 20.00     0.145 C 
HETATM    9  C9  UNL     1     -33.602   7.388   4.040  1.00 20.00     0.024 C 
HETATM   10  C10 UNL     1     -33.860   6.560   5.302  1.00 20.00     0.026 C 
ENDROOT
BRANCH   8  11
HETATM   11  O11 UNL     1     -35.108   4.695   6.180  1.00 20.00    -0.391 OA
HETATM   12  H25 UNL     1     -35.889   4.139   6.027  1.00 20.00     0.210 HD
ENDBRANCH   8  11
TORSDOF 1
