REMARK  1 active torsions:
REMARK  status: ('A' for Active; 'I' for Inactive)
REMARK    1  A    between atoms: C7_7  and  C9_9 
ROOT
HETATM    1  C1  UNL     1     -34.511   5.225   6.271  1.00 20.00    -0.004 A 
HETATM    2  C2  UNL     1     -33.808   6.476   6.377  1.00 20.00    -0.004 A 
HETATM    3  C3  UNL     1     -34.866   4.717   5.083  1.00 20.00    -0.017 A 
HETATM    4  C4  UNL     1     -33.522   7.216   5.299  1.00 20.00    -0.020 A 
HETATM    5  C5  UNL     1     -33.607   4.623   2.943  1.00 20.00    -0.021 C 
HETATM    6  C6  UNL     1     -32.583   5.362   2.512  1.00 20.00    -0.017 C 
HETATM    7  C8  UNL     1     -34.575   5.406   3.777  1.00 20.00     0.039 A 
HETATM    8  C9  UNL     1     -32.669   6.779   2.968  1.00 20.00     0.086 C 
HETATM    9  C10 UNL     1     -33.905   6.813   3.894  1.00 20.00     0.034 A 
ENDROOT
BRANCH   8  10
HETATM   10  C7  UNL     1     -32.862   7.623   1.746  1.00 20.00     0.131 C 
HETATM   11  C11 UNL     1     -31.783   7.555   0.700  1.00 20.00     0.091 C 
HETATM   12  O12 UNL     1     -33.855   8.335   1.604  1.00 20.00    -0.298 OA
ENDBRANCH   8  10
TORSDOF 1
