REMARK  1 active torsions:
REMARK  status: ('A' for Active; 'I' for Inactive)
REMARK    1  A    between atoms: C3_3  and  C6_6 
ROOT
HETATM    1  C1  UNL     1     -34.028   7.545   2.542  1.00 20.00    -0.022 C 
HETATM    2  C2  UNL     1     -33.173   6.893   1.741  1.00 20.00    -0.022 C 
HETATM    3  C4  UNL     1     -33.938   6.905   3.909  1.00 20.00     0.053 C 
HETATM    4  C5  UNL     1     -32.506   5.819   2.570  1.00 20.00     0.047 C 
HETATM    5  C6  UNL     1     -34.586   5.502   3.789  1.00 20.00     0.062 C 
HETATM    6  C7  UNL     1     -33.537   4.712   2.934  1.00 20.00     0.003 C 
HETATM    7  C8  UNL     1     -32.446   6.557   3.909  1.00 20.00     0.186 C 
HETATM    8  C9  UNL     1     -34.153   4.002   1.736  1.00 20.00     0.011 C 
HETATM    9  F11 UNL     1     -31.662   7.656   3.858  1.00 20.00    -0.248 F 
ENDROOT
BRANCH   5  10
HETATM   10  C3  UNL     1     -34.782   4.892   5.144  1.00 20.00     0.236 C 
HETATM   11  O10 UNL     1     -34.498   5.466   6.190  1.00 20.00    -0.306 OA
ENDBRANCH   5  10
TORSDOF 1
