REMARK  0 active torsions:
REMARK  status: ('A' for Active; 'I' for Inactive)
ROOT
HETATM    1  C1  UNL     1     -33.810   5.123   2.814  1.00 20.00     0.110 A 
HETATM    2  C2  UNL     1     -34.126   5.263   4.154  1.00 20.00     0.007 A 
HETATM    3  C3  UNL     1     -33.503   6.404   4.712  1.00 20.00     0.002 A 
HETATM    4  C4  UNL     1     -32.818   6.937   3.697  1.00 20.00     0.048 A 
HETATM    5  C5  UNL     1     -34.882   4.633   5.178  1.00 20.00     0.124 A 
HETATM    6  C6  UNL     1     -31.979   7.799   2.927  1.00 20.00     0.048 A 
HETATM    7  C7  UNL     1     -32.214   6.987   1.855  1.00 20.00     0.099 A 
HETATM    8  C8  UNL     1     -33.877   6.493   6.120  1.00 20.00     0.190 A 
HETATM    9  N9  UNL     1     -34.784   5.276   6.311  1.00 20.00    -0.296 NA
HETATM   10  N10 UNL     1     -33.008   6.186   2.619  1.00 20.00    -0.331 N 
ENDROOT
TORSDOF 0
