REMARK  2 active torsions:
REMARK  status: ('A' for Active; 'I' for Inactive)
REMARK    1  A    between atoms: C1_1  and  C5_5 
REMARK    2  A    between atoms: C3_3  and  C6_6 
ROOT
HETATM    1  C1  UNL     1     -33.027   8.200   0.614  1.00 20.00    -0.053 C 
HETATM    2  C2  UNL     1     -33.167   8.485  -0.543  1.00 20.00     0.106 C 
HETATM    3  F9  UNL     1     -33.323   8.804  -1.833  1.00 20.00    -0.144 F 
ENDROOT
BRANCH   1   4
HETATM    4  C5  UNL     1     -32.862   7.864   1.979  1.00 20.00     0.114 A 
HETATM    5  C6  UNL     1     -32.763   6.487   2.350  1.00 20.00     0.108 A 
HETATM    6  C7  UNL     1     -31.705   7.445   2.486  1.00 20.00     0.186 A 
HETATM    7  F10 UNL     1     -31.324   7.767   3.741  1.00 20.00    -0.235 F 
BRANCH   5   8
HETATM    8  C3  UNL     1     -33.396   5.973   3.359  1.00 20.00    -0.080 C 
HETATM    9  C4  UNL     1     -33.983   5.498   4.292  1.00 20.00     0.272 C 
HETATM   10  O8  UNL     1     -34.557   5.032   5.206  1.00 20.00    -0.274 OA
ENDBRANCH   5   8
ENDBRANCH   1   4
TORSDOF 2
