REMARK  1 active torsions:
REMARK  status: ('A' for Active; 'I' for Inactive)
REMARK    1  A    between atoms: C6_6  and  N10_10 
ROOT
HETATM    1  C1  UNL     1     -33.001   7.821   0.743  1.00 20.00     0.064 C 
HETATM    2  C2  UNL     1     -32.169   7.409   3.056  1.00 20.00     0.021 C 
HETATM    3  C3  UNL     1     -33.144   6.769   4.041  1.00 20.00     0.037 C 
HETATM    4  C4  UNL     1     -33.564   5.725   1.949  1.00 20.00     0.055 C 
HETATM    5  C5  UNL     1     -32.506   6.805   1.682  1.00 20.00     0.095 C 
HETATM    6  C6  UNL     1     -33.401   5.398   3.430  1.00 20.00     0.223 C 
HETATM    7  N9  UNL     1     -33.392   8.623   0.002  1.00 20.00    -0.197 NA
ENDROOT
BRANCH   6   8
HETATM    8  N10 UNL     1     -34.567   4.741   3.993  1.00 20.00     0.084 N 
HETATM    9  C7  UNL     1     -35.655   5.701   4.205  1.00 20.00     0.309 C 
HETATM   10  C8  UNL     1     -34.231   4.075   5.255  1.00 20.00     0.309 C 
ENDBRANCH   6   8
TORSDOF 1
