REMARK  4 active torsions:
REMARK  status: ('A' for Active; 'I' for Inactive)
REMARK    1  A    between atoms: C1_1  and  C2_2 
REMARK    2  A    between atoms: C1_1  and  C3_3 
REMARK    3  A    between atoms: C2_2  and  C8_8 
REMARK    4  A    between atoms: C3_3  and  C6_6 
ROOT
HETATM    1  C1  UNL     1     -33.069   6.556   3.057  1.00 20.00     0.125 C 
HETATM    2 CL11 UNL     1     -32.794   4.965   2.427  1.00 20.00    -0.076 Cl
ENDROOT
BRANCH   1   3
HETATM    3  C2  UNL     1     -32.911   7.694   2.334  1.00 20.00     0.174 C 
HETATM    4  O9  UNL     1     -32.540   7.860   1.135  1.00 20.00    -0.291 OA
BRANCH   3   5
HETATM    5  C8  UNL     1     -33.249   9.054   2.966  1.00 20.00     0.080 C 
HETATM    6  C7  UNL     1     -33.014  10.224   2.013  1.00 20.00     0.013 C 
ENDBRANCH   3   5
ENDBRANCH   1   3
BRANCH   1   7
HETATM    7  C3  UNL     1     -33.569   6.615   4.468  1.00 20.00     0.178 C 
HETATM    8  O10 UNL     1     -33.000   7.240   5.354  1.00 20.00    -0.291 OA
BRANCH   7   9
HETATM    9  C6  UNL     1     -34.836   5.888   4.772  1.00 20.00     0.061 A 
HETATM   10  C4  UNL     1     -34.763   4.434   5.101  1.00 20.00     0.013 A 
HETATM   11  C5  UNL     1     -35.077   5.434   6.173  1.00 20.00     0.013 A 
ENDBRANCH   7   9
ENDBRANCH   1   7
TORSDOF 4
