REMARK  0 active torsions:
REMARK  status: ('A' for Active; 'I' for Inactive)
ROOT
HETATM    1  C1  UNL     1     -34.855   5.499   5.057  1.00 20.00     0.251 C 
HETATM    2  C2  UNL     1     -33.563   6.280   4.931  1.00 20.00     0.251 C 
HETATM    3  C3  UNL     1     -34.743   4.347   4.080  1.00 20.00     0.271 C 
HETATM    4  C4  UNL     1     -33.383   6.567   3.454  1.00 20.00     0.271 C 
HETATM    5  F5  UNL     1     -34.987   5.022   6.318  1.00 20.00    -0.242 F 
HETATM    6  F6  UNL     1     -33.675   7.452   5.609  1.00 20.00    -0.242 F 
HETATM    7  F7  UNL     1     -33.875   3.425   4.576  1.00 20.00    -0.235 F 
HETATM    8  F8  UNL     1     -32.069   6.770   3.185  1.00 20.00    -0.235 F 
HETATM    9  S9  UNL     1     -34.010   5.098   2.599  1.00 20.00    -0.089 SA
ENDROOT
TORSDOF 0
