REMARK  2 active torsions:
REMARK  status: ('A' for Active; 'I' for Inactive)
REMARK    1  A    between atoms: C1_1  and  N9_9 
REMARK    2  A    between atoms: C4_4  and  C8_8 
ROOT
HETATM    1  C2  UNL     1     -33.525   5.410   2.082  1.00 20.00     0.031 C 
HETATM    2  C3  UNL     1     -32.954   7.181   3.575  1.00 20.00     0.130 C 
HETATM    3  C4  UNL     1     -33.286   6.923   2.110  1.00 20.00     0.005 C 
HETATM    4  C5  UNL     1     -34.219   5.129   3.422  1.00 20.00     0.083 C 
HETATM    5  C6  UNL     1     -33.875   3.744   3.953  1.00 20.00     0.032 C 
HETATM    6  N9  UNL     1     -33.771   6.216   4.292  1.00 20.00    -0.355 N 
ENDROOT
BRANCH   3   7
HETATM    7  C8  UNL     1     -32.194   7.375   1.158  1.00 20.00     0.002 C 
HETATM    8  C7  UNL     1     -31.956   8.851   1.237  1.00 20.00     0.005 C 
ENDBRANCH   3   7
BRANCH   6   9
HETATM    9  C1  UNL     1     -34.179   6.398   5.594  1.00 20.00     0.351 C 
HETATM   10  O10 UNL     1     -34.865   5.636   6.266  1.00 20.00    -0.284 OA
ENDBRANCH   6   9
TORSDOF 2
