REMARK  1 active torsions:
REMARK  status: ('A' for Active; 'I' for Inactive)
REMARK    1  A    between atoms: C1_1  and  C4_4 
ROOT
HETATM    1  C2  UNL     1     -33.751   7.077   5.290  1.00 20.00     0.016 C 
HETATM    2  C3  UNL     1     -34.211   5.812   6.034  1.00 20.00     0.022 C 
HETATM    3  C4  UNL     1     -34.380   6.490   4.002  1.00 20.00     0.090 C 
HETATM    4  C5  UNL     1     -35.261   5.599   4.923  1.00 20.00     0.094 C 
HETATM    5 CL8  UNL     1     -36.946   6.151   5.256  1.00 20.00    -0.124 Cl
ENDROOT
BRANCH   3   6
HETATM    6  C1  UNL     1     -33.445   5.767   3.020  1.00 20.00     0.224 C 
HETATM    7  O6  UNL     1     -32.592   6.372   2.376  1.00 20.00    -0.279 OA
HETATM    8 CL7  UNL     1     -33.756   4.059   2.958  1.00 20.00    -0.043 Cl
ENDBRANCH   3   6
TORSDOF 1
