REMARK  1 active torsions:
REMARK  status: ('A' for Active; 'I' for Inactive)
REMARK    1  A    between atoms: C3_3  and  C7_7 
ROOT
HETATM    1  C1  UNL     1     -33.548   4.118   3.314  1.00 20.00    -0.023 C 
HETATM    2  C2  UNL     1     -34.401   4.336   4.329  1.00 20.00    -0.015 C 
HETATM    3  C4  UNL     1     -35.010   5.776   2.626  1.00 20.00     0.029 C 
HETATM    4  C5  UNL     1     -33.546   5.350   2.431  1.00 20.00     0.029 C 
HETATM    5  C6  UNL     1     -35.018   5.699   4.151  1.00 20.00     0.071 C 
HETATM    6  C7  UNL     1     -32.699   6.449   3.104  1.00 20.00     0.116 C 
HETATM    7  S9  UNL     1     -33.725   6.937   4.553  1.00 20.00    -0.148 SA
ENDROOT
BRANCH   6   8
HETATM    8  C3  UNL     1     -32.505   7.649   2.238  1.00 20.00     0.246 C 
HETATM    9  O8  UNL     1     -32.873   7.706   1.069  1.00 20.00    -0.306 OA
ENDBRANCH   6   8
TORSDOF 1
