REMARK  0 active torsions:
REMARK  status: ('A' for Active; 'I' for Inactive)
ROOT
HETATM    1  C1  UNL     1     -33.718   5.575   3.639  1.00 20.00     0.223 C 
HETATM    2  C2  UNL     1     -32.082   7.274   3.828  1.00 20.00     0.130 C 
HETATM    3  C3  UNL     1     -32.704   5.366   2.524  1.00 20.00     0.079 C 
HETATM    4  C4  UNL     1     -32.038   6.751   2.393  1.00 20.00     0.012 C 
HETATM    5  C5  UNL     1     -33.325   4.793   1.263  1.00 20.00     0.020 C 
HETATM    6  C6  UNL     1     -32.754   7.710   1.439  1.00 20.00     0.012 C 
HETATM    7  C7  UNL     1     -33.889   7.171   5.587  1.00 20.00     0.152 C 
HETATM    8  N8  UNL     1     -33.287   6.684   4.365  1.00 20.00    -0.356 N 
HETATM    9  O9  UNL     1     -34.684   4.860   3.860  1.00 20.00    -0.273 OA
ENDROOT
TORSDOF 0
