REMARK  0 active torsions:
REMARK  status: ('A' for Active; 'I' for Inactive)
ROOT
HETATM    1  C1  UNL     1     -32.300   6.462   2.450  1.00 20.00     0.011 C 
HETATM    2  C2  UNL     1     -33.367   4.197   3.174  1.00 20.00     0.011 C 
HETATM    3  C3  UNL     1     -32.200   7.307   3.497  1.00 20.00     0.007 C 
HETATM    4  C4  UNL     1     -34.163   4.058   4.253  1.00 20.00     0.007 C 
HETATM    5  C5  UNL     1     -34.011   7.347   5.614  1.00 20.00     0.042 C 
HETATM    6  C6  UNL     1     -34.872   6.069   5.872  1.00 20.00     0.042 C 
HETATM    7  C7  UNL     1     -33.516   5.572   2.584  1.00 20.00     0.270 C 
HETATM    8  C8  UNL     1     -33.147   6.809   4.513  1.00 20.00     0.247 C 
HETATM    9  C9  UNL     1     -34.943   5.322   4.514  1.00 20.00     0.247 C 
HETATM   10  N10 UNL     1     -34.255   6.287   3.647  1.00 20.00     0.116 N 
ENDROOT
TORSDOF 0
