REMARK  2 active torsions:
REMARK  status: ('A' for Active; 'I' for Inactive)
REMARK    1  A    between atoms: C5_5  and  C7_7 
REMARK    2  A    between atoms: C7_7  and  O8_8 
ROOT
HETATM    1  C1  UNL     1     -34.150   6.825   3.777  1.00 20.00     0.013 C 
HETATM    2  C2  UNL     1     -33.767   4.962   2.107  1.00 20.00     0.013 C 
HETATM    3  C3  UNL     1     -32.982   7.603   3.176  1.00 20.00     0.079 C 
HETATM    4  C4  UNL     1     -32.598   5.741   1.507  1.00 20.00     0.079 C 
HETATM    5  C5  UNL     1     -33.977   5.310   3.588  1.00 20.00     0.009 C 
HETATM    6  C6  UNL     1     -32.759   7.236   1.719  1.00 20.00     0.243 C 
HETATM    7  F9  UNL     1     -33.807   7.683   0.980  1.00 20.00    -0.206 F 
HETATM    8  F10 UNL     1     -31.659   7.879   1.254  1.00 20.00    -0.206 F 
ENDROOT
BRANCH   5   9
HETATM    9  C7  UNL     1     -35.180   4.557   4.152  1.00 20.00     0.168 C 
BRANCH   9  10
HETATM   10  O8  UNL     1     -35.278   4.840   5.535  1.00 20.00    -0.400 OA
HETATM   11  H22 UNL     1     -36.048   4.352   5.874  1.00 20.00     0.209 HD
ENDBRANCH   9  10
ENDBRANCH   5   9
TORSDOF 2
