REMARK  1 active torsions:
REMARK  status: ('A' for Active; 'I' for Inactive)
REMARK    1  A    between atoms: C1_1  and  C4_4 
ROOT
HETATM    1  C2  UNL     1     -34.454   5.556   6.209  1.00 20.00     0.014 A 
HETATM    2  C3  UNL     1     -34.042   6.905   5.703  1.00 20.00     0.014 A 
HETATM    3  C4  UNL     1     -34.758   5.949   4.788  1.00 20.00     0.066 A 
ENDROOT
BRANCH   3   4
HETATM    4  C1  UNL     1     -34.019   5.315   3.691  1.00 20.00     0.193 C 
HETATM    5  O5  UNL     1     -33.976   4.102   3.551  1.00 20.00    -0.286 OA
HETATM    6  I6  UNL     1     -33.000   6.477   2.308  1.00 20.00    -0.001 I 
ENDBRANCH   3   4
TORSDOF 1
