REMARK  1 active torsions:
REMARK  status: ('A' for Active; 'I' for Inactive)
REMARK    1  A    between atoms: C2_2  and  C3_3 
ROOT
HETATM    1  C1  UNL     1     -34.046   6.471   4.681  1.00 20.00    -0.043 C 
HETATM    2  C2  UNL     1     -33.235   7.084   3.819  1.00 20.00     0.055 C 
HETATM    3  C4  UNL     1     -34.407   6.731   6.126  1.00 20.00     0.040 C 
HETATM    4  C5  UNL     1     -34.875   5.262   6.113  1.00 20.00     0.046 C 
HETATM    5  C6  UNL     1     -34.953   5.259   4.565  1.00 20.00     0.199 C 
HETATM    6  F9  UNL     1     -34.486   4.138   3.968  1.00 20.00    -0.245 F 
ENDROOT
BRANCH   2   7
HETATM    7  C3  UNL     1     -33.082   6.583   2.426  1.00 20.00     0.145 C 
HETATM    8  C7  UNL     1     -32.142   7.345   1.529  1.00 20.00     0.096 C 
HETATM    9  O8  UNL     1     -33.670   5.581   2.024  1.00 20.00    -0.294 OA
ENDBRANCH   2   7
TORSDOF 1
