REMARK  1 active torsions:
REMARK  status: ('A' for Active; 'I' for Inactive)
REMARK    1  A    between atoms: C1_1  and  C4_4 
ROOT
HETATM    1  C1  UNL     1     -33.000   6.583   2.956  1.00 20.00    -0.068 C 
HETATM    2  C2  UNL     1     -32.367   7.441   2.404  1.00 20.00    -0.108 C 
HETATM    3  C6  UNL     1     -31.596   8.486   1.731  1.00 20.00     0.112 C 
ENDROOT
BRANCH   1   4
HETATM    4  C4  UNL     1     -33.764   5.545   3.624  1.00 20.00     0.129 C 
HETATM    5  C5  UNL     1     -34.108   5.802   5.139  1.00 20.00     0.016 C 
HETATM    6  C3  UNL     1     -35.556   5.532   4.675  1.00 20.00     0.182 C 
HETATM    7  C8  UNL     1     -33.932   7.235   5.657  1.00 20.00     0.021 C 
HETATM    8  C9  UNL     1     -33.578   4.797   6.158  1.00 20.00     0.021 C 
HETATM    9  O10 UNL     1     -35.176   5.689   3.283  1.00 20.00    -0.366 OA
HETATM   10  C7  UNL     1     -33.276   4.161   3.201  1.00 20.00     0.061 C 
ENDBRANCH   1   4
TORSDOF 1
