REMARK  1 active torsions:
REMARK  status: ('A' for Active; 'I' for Inactive)
REMARK    1  A    between atoms: C1_1  and  C8_8 
ROOT
HETATM    1  C2  UNL     1     -32.452   6.711   3.637  1.00 20.00     0.013 A 
HETATM    2  C3  UNL     1     -33.525   5.639   2.090  1.00 20.00     0.013 A 
HETATM    3  C4  UNL     1     -34.509   7.225   3.191  1.00 20.00     0.013 A 
HETATM    4  C5  UNL     1     -32.756   5.234   3.354  1.00 20.00     0.006 A 
HETATM    5  C6  UNL     1     -33.743   6.825   4.458  1.00 20.00     0.006 A 
HETATM    6  C7  UNL     1     -34.819   5.749   2.907  1.00 20.00     0.006 A 
HETATM    7  C8  UNL     1     -33.218   7.114   2.372  1.00 20.00     0.033 A 
HETATM    8  C9  UNL     1     -34.054   5.339   4.182  1.00 20.00    -0.031 A 
HETATM    9  C11 UNL     1     -34.520   4.350   5.190  1.00 20.00     0.016 C 
ENDROOT
BRANCH   7  10
HETATM   10  C1  UNL     1     -32.748   8.106   1.354  1.00 20.00     0.133 C 
HETATM   11  C10 UNL     1     -31.450   7.799   0.658  1.00 20.00     0.091 C 
HETATM   12  O12 UNL     1     -33.393   9.122   1.098  1.00 20.00    -0.297 OA
ENDBRANCH   7  10
TORSDOF 1
