REMARK  1 active torsions:
REMARK  status: ('A' for Active; 'I' for Inactive)
REMARK    1  A    between atoms: C3_3  and  C8_8 
ROOT
HETATM    1  C1  UNL     1     -34.838   5.756   2.694  1.00 20.00    -0.024 C 
HETATM    2  C2  UNL     1     -35.022   6.438   3.835  1.00 20.00    -0.021 C 
HETATM    3  C4  UNL     1     -33.188   4.255   3.721  1.00 20.00     0.010 C 
HETATM    4  C5  UNL     1     -33.375   5.044   5.040  1.00 20.00     0.014 C 
HETATM    5  C6  UNL     1     -32.661   7.161   3.897  1.00 20.00     0.026 C 
HETATM    6  C7  UNL     1     -33.445   5.184   2.514  1.00 20.00     0.019 C 
HETATM    7  C8  UNL     1     -32.421   6.344   2.601  1.00 20.00     0.063 C 
HETATM    8  C9  UNL     1     -33.798   6.509   4.735  1.00 20.00    -0.026 C 
HETATM    9  C11 UNL     1     -34.064   7.291   6.017  1.00 20.00     0.019 C 
ENDROOT
BRANCH   7  10
HETATM   10  C3  UNL     1     -32.483   7.234   1.394  1.00 20.00     0.128 C 
HETATM   11  C10 UNL     1     -32.222   6.587   0.061  1.00 20.00     0.091 C 
HETATM   12  O12 UNL     1     -32.737   8.434   1.490  1.00 20.00    -0.298 OA
ENDBRANCH   7  10
TORSDOF 1
