REMARK  2 active torsions:
REMARK  status: ('A' for Active; 'I' for Inactive)
REMARK    1  A    between atoms: C2_2  and  C7_7 
REMARK    2  A    between atoms: C3_3  and  C6_6 
ROOT
HETATM    1  C4  UNL     1     -33.357   4.236   2.543  1.00 20.00     0.014 C 
HETATM    2  C5  UNL     1     -34.005   3.789   3.867  1.00 20.00     0.015 C 
HETATM    3  C6  UNL     1     -33.302   5.676   3.114  1.00 20.00     0.067 C 
HETATM    4  C7  UNL     1     -34.474   5.261   4.079  1.00 20.00    -0.011 C 
HETATM    5  C10 UNL     1     -35.895   5.531   3.586  1.00 20.00     0.021 C 
ENDROOT
BRANCH   4   6
HETATM    6  C2  UNL     1     -34.290   5.749   5.472  1.00 20.00    -0.084 C 
HETATM    7  C1  UNL     1     -34.347   4.923   6.527  1.00 20.00     0.015 C 
HETATM    8  C8  UNL     1     -34.037   7.219   5.629  1.00 20.00     0.043 C 
ENDBRANCH   4   6
BRANCH   3   9
HETATM    9  C3  UNL     1     -33.532   6.843   2.149  1.00 20.00     0.128 C 
HETATM   10  C9  UNL     1     -32.480   7.919   2.125  1.00 20.00     0.091 C 
HETATM   11  O11 UNL     1     -34.527   6.897   1.428  1.00 20.00    -0.298 OA
ENDBRANCH   3   9
TORSDOF 2
