REMARK  1 active torsions:
REMARK  status: ('A' for Active; 'I' for Inactive)
REMARK    1  A    between atoms: C1_1  and  C7_7 
ROOT
HETATM    1  C2  UNL     1     -33.126   5.381   2.865  1.00 20.00     0.048 C 
HETATM    2  C3  UNL     1     -32.637   7.233   4.459  1.00 20.00     0.048 C 
HETATM    3  C4  UNL     1     -34.119   4.819   3.884  1.00 20.00     0.273 C 
HETATM    4  C5  UNL     1     -33.645   6.612   5.429  1.00 20.00     0.273 C 
HETATM    5  C6  UNL     1     -34.742   7.001   3.427  1.00 20.00     0.288 C 
HETATM    6  C7  UNL     1     -33.262   6.884   3.108  1.00 20.00     0.042 C 
HETATM    7  N8  UNL     1     -34.694   6.025   4.546  1.00 20.00     0.089 N 
ENDROOT
BRANCH   6   8
HETATM    8  C1  UNL     1     -32.798   7.743   1.981  1.00 20.00     0.242 C 
HETATM    9  O9  UNL     1     -33.525   8.533   1.390  1.00 20.00    -0.306 OA
ENDBRANCH   6   8
TORSDOF 1
