REMARK  4 active torsions:
REMARK  status: ('A' for Active; 'I' for Inactive)
REMARK    1  A    between atoms: C1_1  and  C4_4 
REMARK    2  A    between atoms: C5_5  and  C8_8 
REMARK    3  A    between atoms: C8_8  and  C10_10 
REMARK    4  A    between atoms: C9_9  and  C10_10 
ROOT
HETATM    1  C2  UNL     1     -33.713   4.331   3.321  1.00 20.00     0.016 C 
HETATM    2  C3  UNL     1     -34.743   6.083   2.618  1.00 20.00     0.016 C 
HETATM    3  C4  UNL     1     -34.760   5.283   3.940  1.00 20.00     0.055 C 
HETATM    4  C5  UNL     1     -33.411   5.396   2.243  1.00 20.00    -0.013 C 
ENDROOT
BRANCH   4   5
HETATM    5  C8  UNL     1     -32.150   6.221   2.450  1.00 20.00     0.005 C 
BRANCH   5   6
HETATM    6  C10 UNL     1     -31.929   7.215   1.308  1.00 20.00     0.000 C 
BRANCH   6   7
HETATM    7  C9  UNL     1     -33.079   8.217   1.205  1.00 20.00    -0.005 C 
HETATM    8  C7  UNL     1     -32.843   9.225   0.092  1.00 20.00     0.005 C 
ENDBRANCH   6   7
ENDBRANCH   5   6
ENDBRANCH   4   5
BRANCH   3   9
HETATM    9  C1  UNL     1     -34.305   6.034   5.146  1.00 20.00     0.127 C 
HETATM   10  C6  UNL     1     -34.094   5.232   6.402  1.00 20.00     0.091 C 
HETATM   11  O11 UNL     1     -34.110   7.248   5.115  1.00 20.00    -0.298 OA
ENDBRANCH   3   9
TORSDOF 4
