REMARK  1 active torsions:
REMARK  status: ('A' for Active; 'I' for Inactive)
REMARK    1  A    between atoms: C3_3  and  C4_4 
ROOT
HETATM    1  C1  UNL     1     -35.365   4.864   4.327  1.00 20.00    -0.018 A 
HETATM    2  C2  UNL     1     -35.142   4.872   5.653  1.00 20.00    -0.025 A 
HETATM    3  C4  UNL     1     -34.407   6.006   4.051  1.00 20.00     0.084 A 
HETATM    4  C5  UNL     1     -34.078   5.950   5.571  1.00 20.00     0.018 A 
HETATM    5  C7  UNL     1     -34.359   7.219   6.360  1.00 20.00     0.015 C 
ENDROOT
BRANCH   3   6
HETATM    6  C3  UNL     1     -33.328   5.585   3.048  1.00 20.00     0.131 C 
HETATM    7  C6  UNL     1     -33.507   4.248   2.383  1.00 20.00     0.091 C 
HETATM    8  O8  UNL     1     -32.364   6.307   2.797  1.00 20.00    -0.298 OA
ENDBRANCH   3   6
TORSDOF 1
