REMARK  1 active torsions:
REMARK  status: ('A' for Active; 'I' for Inactive)
REMARK    1  A    between atoms: C5_5  and  C8_8 
ROOT
HETATM    1  C1  UNL     1     -34.316   4.437   4.386  1.00 20.00    -0.004 C 
HETATM    2  C2  UNL     1     -33.842   4.165   3.029  1.00 20.00    -0.004 C 
HETATM    3  C3  UNL     1     -34.316   5.591   5.090  1.00 20.00    -0.026 C 
HETATM    4  C4  UNL     1     -32.938   4.897   2.348  1.00 20.00    -0.021 C 
HETATM    5  C6  UNL     1     -33.816   6.970   4.678  1.00 20.00     0.033 C 
HETATM    6  C7  UNL     1     -32.333   6.102   2.908  1.00 20.00     0.026 A 
HETATM    7  C8  UNL     1     -32.273   7.526   2.473  1.00 20.00     0.085 A 
HETATM    8  C9  UNL     1     -33.482   7.061   3.230  1.00 20.00     0.011 A 
ENDROOT
BRANCH   7   9
HETATM    9  C5  UNL     1     -32.384   7.849   1.046  1.00 20.00     0.224 C 
HETATM   10  O10 UNL     1     -32.091   7.035   0.175  1.00 20.00    -0.279 OA
HETATM   11 CL11 UNL     1     -32.961   9.467   0.784  1.00 20.00    -0.043 Cl
ENDBRANCH   7   9
TORSDOF 1
