REMARK  1 active torsions:
REMARK  status: ('A' for Active; 'I' for Inactive)
REMARK    1  A    between atoms: C7_7  and  N11_11 
ROOT
HETATM    1  C1  UNL     1     -33.558   4.438   3.250  1.00 20.00     0.164 C 
HETATM    2  C2  UNL     1     -35.572   4.253   4.641  1.00 20.00     0.013 C 
HETATM    3  C3  UNL     1     -33.357   4.926   5.640  1.00 20.00     0.013 C 
HETATM    4  C4  UNL     1     -35.889   5.734   4.374  1.00 20.00     0.008 C 
HETATM    5  C5  UNL     1     -33.716   6.398   5.379  1.00 20.00     0.008 C 
HETATM    6  C6  UNL     1     -34.057   4.015   4.624  1.00 20.00     0.058 C 
HETATM    7  C7  UNL     1     -33.884   5.880   2.885  1.00 20.00     0.295 C 
HETATM    8  C8  UNL     1     -34.586   6.518   4.110  1.00 20.00     0.026 C 
HETATM    9  O12 UNL     1     -32.946   3.675   2.507  1.00 20.00    -0.295 OA
ENDROOT
BRANCH   7  10
HETATM   10  N11 UNL     1     -32.641   6.539   2.507  1.00 20.00     0.092 N 
HETATM   11  C9  UNL     1     -32.778   7.994   2.603  1.00 20.00     0.310 C 
HETATM   12  C10 UNL     1     -32.245   6.156   1.151  1.00 20.00     0.310 C 
ENDBRANCH   7  10
TORSDOF 1
