REMARK  2 active torsions:
REMARK  status: ('A' for Active; 'I' for Inactive)
REMARK    1  A    between atoms: C3_3  and  C7_7 
REMARK    2  A    between atoms: C6_6  and  O11_11 
ROOT
HETATM    1  C1  UNL     1     -33.786   6.076   6.488  1.00 20.00    -0.028 C 
HETATM    2  C2  UNL     1     -33.612   6.903   5.449  1.00 20.00     0.002 C 
HETATM    3  C4  UNL     1     -34.211   4.648   6.341  1.00 20.00     0.028 C 
HETATM    4  C5  UNL     1     -34.149   4.136   4.896  1.00 20.00     0.023 C 
HETATM    5  C6  UNL     1     -33.856   6.504   4.020  1.00 20.00     0.158 C 
HETATM    6  C7  UNL     1     -34.646   5.178   3.874  1.00 20.00     0.039 C 
HETATM    7  C8  UNL     1     -34.535   4.603   2.453  1.00 20.00     0.026 C 
ENDROOT
BRANCH   6   8
HETATM    8  C3  UNL     1     -36.119   5.438   4.099  1.00 20.00     0.243 C 
HETATM    9  O10 UNL     1     -36.979   4.568   4.020  1.00 20.00    -0.306 OA
ENDBRANCH   6   8
BRANCH   5  10
HETATM   10  O11 UNL     1     -32.589   6.401   3.370  1.00 20.00    -0.386 OA
HETATM   11  C9  UNL     1     -32.097   7.677   2.993  1.00 20.00     0.202 C 
ENDBRANCH   5  10
TORSDOF 2
