REMARK  1 active torsions:
REMARK  status: ('A' for Active; 'I' for Inactive)
REMARK    1  A    between atoms: C2_2  and  C9_9 
ROOT
HETATM    1  C1  UNL     1     -33.384   5.275   2.787  1.00 20.00     0.144 C 
HETATM    2  C3  UNL     1     -33.141   5.862   1.413  1.00 20.00     0.084 C 
HETATM    3  C4  UNL     1     -31.785   7.577   3.528  1.00 20.00     0.002 C 
HETATM    4  C5  UNL     1     -32.345   8.156   2.222  1.00 20.00     0.005 C 
HETATM    5  C6  UNL     1     -32.871   7.037   4.470  1.00 20.00     0.027 C 
HETATM    6  C7  UNL     1     -34.624   7.245   2.687  1.00 20.00     0.031 C 
HETATM    7  C8  UNL     1     -33.513   7.337   1.640  1.00 20.00    -0.006 C 
HETATM    8  C9  UNL     1     -33.996   6.306   3.721  1.00 20.00     0.097 C 
HETATM    9  O10 UNL     1     -33.110   4.123   3.098  1.00 20.00    -0.297 OA
ENDROOT
BRANCH   8  10
HETATM   10  C2  UNL     1     -35.034   5.769   4.652  1.00 20.00     0.234 C 
HETATM   11  O11 UNL     1     -36.058   5.235   4.238  1.00 20.00    -0.279 OA
HETATM   12 CL12 UNL     1     -34.599   5.998   6.319  1.00 20.00    -0.043 Cl
ENDBRANCH   8  10
TORSDOF 1
