REMARK  2 active torsions:
REMARK  status: ('A' for Active; 'I' for Inactive)
REMARK    1  A    between atoms: C4_4  and  C5_5 
REMARK    2  A    between atoms: C9_9  and  C11_11 
ROOT
HETATM    1  C1  UNL     1     -33.345   8.767  -1.693  1.00 20.00     0.012 C 
HETATM    2  C2  UNL     1     -33.435   8.540  -0.517  1.00 20.00    -0.117 C 
HETATM    3  C11 UNL     1     -33.554   8.271   0.918  1.00 20.00     0.098 C 
ENDROOT
BRANCH   3   4
HETATM    4  C9  UNL     1     -32.376   7.428   1.419  1.00 20.00     0.000 C 
HETATM    5  C6  UNL     1     -32.181   7.582   2.940  1.00 20.00     0.033 C 
HETATM    6  C3  UNL     1     -33.081   6.705   3.765  1.00 20.00    -0.016 C 
HETATM    7  C4  UNL     1     -33.768   5.680   3.242  1.00 20.00    -0.016 C 
HETATM    8  C7  UNL     1     -33.701   5.276   1.800  1.00 20.00     0.042 C 
HETATM    9  C8  UNL     1     -32.543   5.946   1.051  1.00 20.00     0.010 C 
BRANCH   7  10
HETATM   10  C5  UNL     1     -34.620   4.900   4.144  1.00 20.00     0.151 C 
HETATM   11  C10 UNL     1     -35.227   5.604   5.331  1.00 20.00     0.096 C 
HETATM   12  O12 UNL     1     -34.824   3.702   3.936  1.00 20.00    -0.293 OA
ENDBRANCH   7  10
ENDBRANCH   3   4
TORSDOF 2
