REMARK  0 active torsions:
REMARK  status: ('A' for Active; 'I' for Inactive)
ROOT
HETATM    1  C1  UNL     1     -33.756   4.858   3.112  1.00 20.00     0.080 A 
HETATM    2  C2  UNL     1     -34.397   4.532   5.604  1.00 20.00     0.019 A 
HETATM    3  C3  UNL     1     -34.373   6.813   4.303  1.00 20.00     0.128 A 
HETATM    4  C4  UNL     1     -34.726   4.417   4.140  1.00 20.00     0.053 A 
HETATM    5  C5  UNL     1     -35.112   5.657   4.907  1.00 20.00     0.015 A 
HETATM    6  C6  UNL     1     -32.724   7.080   2.418  1.00 20.00     0.150 C 
HETATM    7  N7  UNL     1     -33.584   6.228   3.222  1.00 20.00    -0.379 N 
HETATM    8  S8  UNL     1     -33.089   3.731   2.102  1.00 20.00    -0.065 SA
ENDROOT
TORSDOF 0
