REMARK  3 active torsions:
REMARK  status: ('A' for Active; 'I' for Inactive)
REMARK    1  A    between atoms: C1_1  and  C7_7 
REMARK    2  A    between atoms: C7_7  and  O10_10 
REMARK    3  A    between atoms: C8_8  and  N9_9 
ROOT
HETATM    1  C1  UNL     1     -32.994   6.303   2.839  1.00 20.00     0.032 C 
HETATM    2  C2  UNL     1     -33.134   4.928   2.224  1.00 20.00     0.068 C 
HETATM    3  N9  UNL     1     -33.479   6.640   3.986  1.00 20.00    -0.287 NA
ENDROOT
BRANCH   1   4
HETATM    4  C7  UNL     1     -32.194   7.356   2.083  1.00 20.00     0.161 C 
HETATM    5  C3  UNL     1     -33.088   8.166   1.160  1.00 20.00     0.045 C 
BRANCH   4   6
HETATM    6  O10 UNL     1     -31.567   8.223   3.010  1.00 20.00    -0.390 OA
HETATM    7  H27 UNL     1     -31.068   8.880   2.495  1.00 20.00     0.210 HD
ENDBRANCH   4   6
ENDBRANCH   1   4
BRANCH   3   8
HETATM    8  C8  UNL     1     -34.218   5.648   4.750  1.00 20.00     0.043 C 
HETATM    9  C4  UNL     1     -33.290   4.468   5.034  1.00 20.00     0.039 C 
HETATM   10  C5  UNL     1     -34.671   6.302   6.055  1.00 20.00     0.039 C 
HETATM   11  C6  UNL     1     -35.425   5.203   3.924  1.00 20.00     0.039 C 
ENDBRANCH   3   8
TORSDOF 3
