REMARK  2 active torsions:
REMARK  status: ('A' for Active; 'I' for Inactive)
REMARK    1  A    between atoms: C7_7  and  O10_10 
REMARK    2  A    between atoms: C9_9  and  O10_10 
ROOT
HETATM    1  C1  UNL     1     -33.458   4.159   3.113  1.00 20.00     0.015 C 
HETATM    2  C2  UNL     1     -33.646   5.285   3.485  1.00 20.00    -0.079 C 
HETATM    3  C3  UNL     1     -34.894   6.349   6.116  1.00 20.00     0.004 C 
HETATM    4  C4  UNL     1     -33.388   6.532   6.309  1.00 20.00     0.004 C 
HETATM    5  C5  UNL     1     -35.199   6.810   4.693  1.00 20.00     0.051 C 
HETATM    6  C6  UNL     1     -32.857   7.094   4.992  1.00 20.00     0.051 C 
HETATM    7  C7  UNL     1     -33.877   6.664   3.941  1.00 20.00     0.122 C 
ENDROOT
BRANCH   7   8
HETATM    8  O10 UNL     1     -33.829   7.548   2.831  1.00 20.00    -0.368 OA
BRANCH   8   9
HETATM    9  C9  UNL     1     -32.567   7.499   2.177  1.00 20.00     0.165 C 
HETATM   10  C8  UNL     1     -32.581   8.460   1.007  1.00 20.00     0.033 C 
ENDBRANCH   8   9
ENDBRANCH   7   8
TORSDOF 2
