REMARK  2 active torsions:
REMARK  status: ('A' for Active; 'I' for Inactive)
REMARK    1  A    between atoms: C1_1  and  C6_6 
REMARK    2  A    between atoms: C1_1  and  O10_10 
ROOT
HETATM    1  C2  UNL     1     -34.565   4.335   6.243  1.00 20.00     0.006 C 
HETATM    2  C3  UNL     1     -34.721   5.860   6.334  1.00 20.00     0.036 C 
HETATM    3  C4  UNL     1     -33.734   4.096   4.973  1.00 20.00     0.052 C 
HETATM    4  C5  UNL     1     -34.656   6.332   4.915  1.00 20.00     0.168 A 
HETATM    5  C6  UNL     1     -34.041   5.265   4.081  1.00 20.00     0.174 A 
HETATM    6  O9  UNL     1     -35.437   5.597   3.970  1.00 20.00    -0.358 OA
ENDROOT
BRANCH   5   7
HETATM    7  C1  UNL     1     -33.270   5.577   2.881  1.00 20.00     0.296 C 
HETATM    8  O8  UNL     1     -32.701   4.738   2.195  1.00 20.00    -0.262 OA
BRANCH   7   9
HETATM    9  O10 UNL     1     -33.290   6.923   2.663  1.00 20.00    -0.324 OA
HETATM   10  C7  UNL     1     -32.567   7.370   1.512  1.00 20.00     0.213 C 
ENDBRANCH   7   9
ENDBRANCH   5   7
TORSDOF 2
