REMARK  2 active torsions:
REMARK  status: ('A' for Active; 'I' for Inactive)
REMARK    1  A    between atoms: C1_1  and  C6_6 
REMARK    2  A    between atoms: C7_7  and  C9_9 
ROOT
HETATM    1  C2  UNL     1     -34.475   6.664   4.942  1.00 20.00     0.012 C 
HETATM    2  C3  UNL     1     -34.311   4.659   3.417  1.00 20.00     0.012 C 
HETATM    3  C4  UNL     1     -33.726   7.510   3.913  1.00 20.00     0.005 C 
HETATM    4  C5  UNL     1     -33.561   5.501   2.386  1.00 20.00     0.005 C 
HETATM    5  C6  UNL     1     -35.231   5.523   4.272  1.00 20.00     0.047 C 
HETATM    6  C7  UNL     1     -32.791   6.653   3.048  1.00 20.00    -0.015 C 
ENDROOT
BRANCH   5   7
HETATM    7  C1  UNL     1     -35.801   4.643   5.367  1.00 20.00     0.235 C 
HETATM    8  O10 UNL     1     -37.001   4.435   5.511  1.00 20.00    -0.306 OA
ENDBRANCH   5   7
BRANCH   6   9
HETATM    9  C9  UNL     1     -32.094   7.512   1.994  1.00 20.00     0.000 C 
HETATM   10  C8  UNL     1     -33.074   8.141   1.060  1.00 20.00     0.005 C 
ENDBRANCH   6   9
TORSDOF 2
