REMARK  1 active torsions:
REMARK  status: ('A' for Active; 'I' for Inactive)
REMARK    1  A    between atoms: C4_4  and  C7_7 
ROOT
HETATM    1  C1  UNL     1     -34.543   4.592   5.092  1.00 20.00    -0.024 C 
HETATM    2  C2  UNL     1     -34.177   4.484   3.803  1.00 20.00    -0.013 C 
HETATM    3  C3  UNL     1     -33.458   6.747   3.789  1.00 20.00     0.140 C 
HETATM    4  C5  UNL     1     -33.856   6.963   5.253  1.00 20.00     0.088 C 
HETATM    5  C6  UNL     1     -35.070   6.002   5.302  1.00 20.00     0.027 C 
HETATM    6  C7  UNL     1     -35.715   6.265   3.927  1.00 20.00     0.074 C 
HETATM    7  C8  UNL     1     -34.478   5.806   3.134  1.00 20.00     0.045 C 
HETATM    8  C9  UNL     1     -34.570   5.846   1.632  1.00 20.00     0.029 C 
HETATM    9  O10 UNL     1     -32.471   7.226   3.252  1.00 20.00    -0.297 OA
ENDROOT
BRANCH   6  10
HETATM   10  C4  UNL     1     -36.989   5.500   3.701  1.00 20.00     0.237 C 
HETATM   11  O11 UNL     1     -37.511   4.790   4.554  1.00 20.00    -0.306 OA
ENDBRANCH   6  10
TORSDOF 1
