REMARK  2 active torsions:
REMARK  status: ('A' for Active; 'I' for Inactive)
REMARK    1  A    between atoms: C3_3  and  C10_10 
REMARK    2  A    between atoms: C7_7  and  O11_11 
ROOT
HETATM    1  C1  UNL     1     -33.324   8.523   0.697  1.00 20.00     0.012 C 
HETATM    2  C2  UNL     1     -32.917   8.033   1.715  1.00 20.00    -0.113 C 
HETATM    3  C10 UNL     1     -32.411   7.442   2.955  1.00 20.00     0.127 C 
ENDROOT
BRANCH   3   4
HETATM    4  C3  UNL     1     -33.358   6.401   3.447  1.00 20.00    -0.060 C 
HETATM    5  C4  UNL     1     -33.996   6.348   4.629  1.00 20.00    -0.052 C 
HETATM    6  C7  UNL     1     -34.919   5.168   4.704  1.00 20.00     0.147 C 
HETATM    7  C8  UNL     1     -33.912   7.285   5.785  1.00 20.00     0.046 C 
HETATM    8  C5  UNL     1     -34.478   4.305   3.524  1.00 20.00     0.045 C 
HETATM    9  C6  UNL     1     -33.780   5.265   2.547  1.00 20.00     0.014 C 
HETATM   10  C9  UNL     1     -32.642   4.573   1.806  1.00 20.00     0.015 C 
BRANCH   6  11
HETATM   11  O11 UNL     1     -36.259   5.607   4.546  1.00 20.00    -0.391 OA
HETATM   12  H25 UNL     1     -36.823   4.818   4.600  1.00 20.00     0.210 HD
ENDBRANCH   6  11
ENDBRANCH   3   4
TORSDOF 2
