REMARK  1 active torsions:
REMARK  status: ('A' for Active; 'I' for Inactive)
REMARK    1  A    between atoms: C2_2  and  C5_5 
ROOT
HETATM    1  C1  UNL     1     -33.396   7.078   3.263  1.00 20.00     0.270 A 
HETATM    2  C2  UNL     1     -34.040   5.750   3.572  1.00 20.00     0.181 A 
HETATM    3  O6  UNL     1     -34.746   6.792   2.881  1.00 20.00    -0.336 OA
HETATM    4 CL7  UNL     1     -32.200   7.275   2.011  1.00 20.00    -0.091 Cl
HETATM    5 CL8  UNL     1     -33.613   4.314   2.646  1.00 20.00    -0.084 Cl
ENDROOT
BRANCH   2   6
HETATM    6  C5  UNL     1     -34.571   5.489   4.980  1.00 20.00     0.032 C 
HETATM    7  C3  UNL     1     -34.364   4.026   5.369  1.00 20.00     0.014 C 
HETATM    8  C4  UNL     1     -33.894   6.413   5.989  1.00 20.00     0.014 C 
ENDBRANCH   2   6
TORSDOF 1
