REMARK  1 active torsions:
REMARK  status: ('A' for Active; 'I' for Inactive)
REMARK    1  A    between atoms: C3_3  and  C6_6 
ROOT
HETATM    1  C1  UNL     1     -34.645   4.755   5.491  1.00 20.00    -0.030 C 
HETATM    2  C2  UNL     1     -34.671   4.282   4.238  1.00 20.00    -0.026 C 
HETATM    3  C4  UNL     1     -33.987   6.045   5.874  1.00 20.00     0.032 C 
HETATM    4  C5  UNL     1     -34.047   4.996   3.064  1.00 20.00     0.018 C 
HETATM    5  C6  UNL     1     -33.770   6.481   3.397  1.00 20.00     0.098 C 
HETATM    6  C7  UNL     1     -33.098   6.652   4.768  1.00 20.00    -0.000 C 
HETATM    7  C8  UNL     1     -32.812   4.201   2.620  1.00 20.00     0.015 C 
HETATM    8  C9  UNL     1     -32.803   8.118   5.101  1.00 20.00     0.011 C 
ENDROOT
BRANCH   5   9
HETATM    9  C3  UNL     1     -32.948   7.095   2.274  1.00 20.00     0.178 C 
HETATM   10  O10 UNL     1     -31.785   6.626   2.139  1.00 20.00    -0.648 OA
HETATM   11  O11 UNL     1     -33.539   8.000   1.620  1.00 20.00    -0.648 OA
ENDBRANCH   5   9
TORSDOF 1
