REMARK  1 active torsions:
REMARK  status: ('A' for Active; 'I' for Inactive)
REMARK    1  A    between atoms: C4_4  and  C7_7 
ROOT
HETATM    1  C1  UNL     1     -33.173   5.891   1.356  1.00 20.00     0.047 C 
HETATM    2  C2  UNL     1     -33.873   5.171   2.239  1.00 20.00    -0.006 C 
HETATM    3  C3  UNL     1     -32.449   7.108   1.788  1.00 20.00     0.149 C 
HETATM    4  C5  UNL     1     -32.435   7.457   3.259  1.00 20.00     0.088 C 
HETATM    5  C6  UNL     1     -33.728   7.019   3.959  1.00 20.00     0.007 C 
HETATM    6  C7  UNL     1     -34.056   5.523   3.698  1.00 20.00     0.031 C 
HETATM    7  C8  UNL     1     -33.666   7.395   5.444  1.00 20.00     0.012 C 
HETATM    8  C9  UNL     1     -35.494   5.194   4.128  1.00 20.00     0.027 C 
HETATM    9  O10 UNL     1     -31.827   7.773   0.961  1.00 20.00    -0.293 OA
ENDROOT
BRANCH   6  10
HETATM   10  C4  UNL     1     -33.116   4.595   4.425  1.00 20.00     0.244 C 
HETATM   11  O11 UNL     1     -33.486   3.779   5.262  1.00 20.00    -0.306 OA
ENDBRANCH   6  10
TORSDOF 1
