REMARK  1 active torsions:
REMARK  status: ('A' for Active; 'I' for Inactive)
REMARK    1  A    between atoms: C1_1  and  C6_6 
ROOT
HETATM    1  C2  UNL     1     -32.822   4.436   4.812  1.00 20.00     0.010 C 
HETATM    2  C3  UNL     1     -34.961   4.551   6.153  1.00 20.00     0.010 C 
HETATM    3  C4  UNL     1     -35.131   4.739   3.841  1.00 20.00     0.010 C 
HETATM    4  C5  UNL     1     -33.390   6.452   6.209  1.00 20.00     0.010 C 
HETATM    5  C6  UNL     1     -33.562   6.705   3.908  1.00 20.00     0.081 C 
HETATM    6  C7  UNL     1     -34.311   3.986   4.889  1.00 20.00    -0.013 C 
HETATM    7  C8  UNL     1     -32.678   5.986   4.934  1.00 20.00    -0.001 C 
HETATM    8  C9  UNL     1     -34.843   6.058   5.886  1.00 20.00    -0.009 C 
HETATM    9  C10 UNL     1     -34.953   6.190   4.317  1.00 20.00     0.003 C 
ENDROOT
BRANCH   5  10
HETATM   10  C1  UNL     1     -33.165   6.471   2.484  1.00 20.00     0.223 C 
HETATM   11  O11 UNL     1     -33.121   5.342   2.004  1.00 20.00    -0.279 OA
HETATM   12 CL12 UNL     1     -32.793   7.953   1.656  1.00 20.00    -0.043 Cl
ENDBRANCH   5  10
TORSDOF 1
