REMARK  1 active torsions:
REMARK  status: ('A' for Active; 'I' for Inactive)
REMARK    1  A    between atoms: C5_5  and  C8_8 
ROOT
HETATM    1  C1  UNL     1     -34.911   5.958   5.891  1.00 20.00    -0.027 C 
HETATM    2  C2  UNL     1     -33.773   6.668   5.882  1.00 20.00    -0.029 C 
HETATM    3  C3  UNL     1     -34.751   4.742   3.646  1.00 20.00    -0.020 C 
HETATM    4  C4  UNL     1     -33.803   5.433   2.986  1.00 20.00    -0.076 C 
HETATM    5  C6  UNL     1     -35.613   5.258   4.762  1.00 20.00     0.054 C 
HETATM    6  C7  UNL     1     -32.903   7.037   4.714  1.00 20.00     0.043 C 
HETATM    7  C8  UNL     1     -33.541   6.882   3.330  1.00 20.00     0.086 C 
HETATM    8  C9  UNL     1     -32.989   4.760   1.914  1.00 20.00     0.044 C 
ENDROOT
BRANCH   7   9
HETATM    9  C5  UNL     1     -32.664   7.544   2.303  1.00 20.00     0.131 C 
HETATM   10  C10 UNL     1     -33.361   8.220   1.153  1.00 20.00     0.091 C 
HETATM   11  O11 UNL     1     -31.438   7.536   2.399  1.00 20.00    -0.298 OA
ENDBRANCH   7   9
TORSDOF 1
