REMARK  0 active torsions:
REMARK  status: ('A' for Active; 'I' for Inactive)
ROOT
HETATM    1  C1  UNL     1     -32.958   8.088   1.372  1.00 20.00     0.095 C 
HETATM    2  C2  UNL     1     -32.194   7.873   4.415  1.00 20.00     0.005 C 
HETATM    3  C3  UNL     1     -34.140   4.019   3.538  1.00 20.00     0.032 C 
HETATM    4  C4  UNL     1     -31.434   7.371   3.189  1.00 20.00     0.051 C 
HETATM    5  C5  UNL     1     -33.208   6.832   4.870  1.00 20.00     0.036 C 
HETATM    6  C6  UNL     1     -34.966   5.194   4.053  1.00 20.00     0.037 C 
HETATM    7  C7  UNL     1     -33.012   4.636   2.720  1.00 20.00     0.275 C 
HETATM    8  C8  UNL     1     -32.374   6.916   2.058  1.00 20.00     0.329 C 
HETATM    9  C9  UNL     1     -34.145   6.435   3.720  1.00 20.00     0.224 C 
HETATM   10  N10 UNL     1     -33.416   9.008   0.834  1.00 20.00    -0.195 NA
HETATM   11  N11 UNL     1     -33.444   6.016   2.498  1.00 20.00     0.111 N 
ENDROOT
TORSDOF 0
