REMARK  1 active torsions:
REMARK  status: ('A' for Active; 'I' for Inactive)
REMARK    1  A    between atoms: C1_1  and  C6_6 
ROOT
HETATM    1  C2  UNL     1     -34.148   5.115   6.569  1.00 20.00     0.001 C 
HETATM    2  C3  UNL     1     -34.688   6.532   6.486  1.00 20.00     0.001 C 
HETATM    3  C4  UNL     1     -34.384   4.515   5.182  1.00 20.00     0.018 C 
HETATM    4  C5  UNL     1     -34.319   6.956   5.072  1.00 20.00     0.018 C 
HETATM    5  C6  UNL     1     -34.604   5.706   4.228  1.00 20.00     0.032 C 
HETATM    6  C7  UNL     1     -36.033   5.723   3.747  1.00 20.00     0.025 C 
ENDROOT
BRANCH   5   7
HETATM    7  C1  UNL     1     -33.710   5.637   2.992  1.00 20.00     0.227 C 
HETATM    8  O8  UNL     1     -33.766   4.694   2.208  1.00 20.00    -0.279 OA
HETATM    9 CL9  UNL     1     -32.660   7.016   2.866  1.00 20.00    -0.043 Cl
ENDBRANCH   5   7
TORSDOF 1
