REMARK  1 active torsions:
REMARK  status: ('A' for Active; 'I' for Inactive)
REMARK    1  A    between atoms: C2_2  and  C5_5 
ROOT
HETATM    1  C1  UNL     1     -33.456   7.605   3.795  1.00 20.00     0.016 C 
HETATM    2  C2  UNL     1     -33.411   7.296   2.490  1.00 20.00    -0.019 C 
HETATM    3  C3  UNL     1     -33.903   6.650   4.795  1.00 20.00    -0.066 C 
HETATM    4  C4  UNL     1     -33.800   6.910   6.107  1.00 20.00     0.019 C 
HETATM    5  C6  UNL     1     -33.780   5.951   1.931  1.00 20.00     0.050 C 
HETATM    6  C7  UNL     1     -34.487   5.350   4.284  1.00 20.00     0.047 C 
HETATM    7  C8  UNL     1     -33.784   4.830   3.004  1.00 20.00    -0.040 C 
HETATM    8  C9  UNL     1     -32.341   4.384   3.323  1.00 20.00     0.015 C 
HETATM    9  C10 UNL     1     -34.551   3.611   2.461  1.00 20.00     0.015 C 
ENDROOT
BRANCH   2  10
HETATM   10  C5  UNL     1     -32.949   8.333   1.563  1.00 20.00     0.265 C 
HETATM   11  O11 UNL     1     -32.872   8.149   0.355  1.00 20.00    -0.302 OA
ENDBRANCH   2  10
TORSDOF 1
