REMARK  0 active torsions:
REMARK  status: ('A' for Active; 'I' for Inactive)
ROOT
HETATM    1  C1  UNL     1     -32.415   7.389   3.316  1.00 20.00    -0.039 C 
HETATM    2  C2  UNL     1     -32.948   6.049   3.078  1.00 20.00     0.034 C 
HETATM    3  C3  UNL     1     -34.543   4.682   4.493  1.00 20.00     0.224 C 
HETATM    4  C4  UNL     1     -31.679   8.140   2.489  1.00 20.00     0.021 C 
HETATM    5  C5  UNL     1     -32.541   5.166   2.160  1.00 20.00     0.044 C 
HETATM    6  C6  UNL     1     -32.915   7.844   4.679  1.00 20.00     0.065 C 
HETATM    7  C7  UNL     1     -35.223   5.089   5.791  1.00 20.00     0.105 C 
HETATM    8  C8  UNL     1     -34.494   6.382   6.194  1.00 20.00     0.035 C 
HETATM    9  C9  UNL     1     -34.159   6.989   4.850  1.00 20.00     0.098 C 
HETATM   10  N10 UNL     1     -33.896   5.823   4.040  1.00 20.00    -0.313 N 
HETATM   11  O11 UNL     1     -34.579   3.562   4.009  1.00 20.00    -0.273 OA
ENDROOT
TORSDOF 0
