REMARK  3 active torsions:
REMARK  status: ('A' for Active; 'I' for Inactive)
REMARK    1  A    between atoms: C3_3  and  C8_8 
REMARK    2  A    between atoms: C6_6  and  C9_9 
REMARK    3  A    between atoms: C7_7  and  C10_10 
ROOT
HETATM    1  C5  UNL     1     -32.498   4.540   2.399  1.00 20.00     0.019 C 
HETATM    2  C8  UNL     1     -33.286   5.874   1.983  1.00 20.00     0.078 C 
HETATM    3  C9  UNL     1     -32.765   5.015   3.859  1.00 20.00    -0.001 C 
HETATM    4  C10 UNL     1     -34.143   5.523   3.233  1.00 20.00     0.010 C 
ENDROOT
BRANCH   2   5
HETATM    5  C3  UNL     1     -32.528   7.206   1.948  1.00 20.00     0.223 C 
HETATM    6  O11 UNL     1     -31.836   7.580   2.890  1.00 20.00    -0.279 OA
HETATM    7 CL12 UNL     1     -32.780   8.062   0.456  1.00 20.00    -0.043 Cl
ENDBRANCH   2   5
BRANCH   4   8
HETATM    8  C7  UNL     1     -34.930   5.924   4.479  1.00 20.00     0.014 C 
HETATM    9  C2  UNL     1     -34.136   6.803   5.408  1.00 20.00    -0.025 C 
HETATM   10  C1  UNL     1     -33.182   6.043   5.973  1.00 20.00    -0.025 C 
HETATM   11  C6  UNL     1     -33.240   4.679   5.292  1.00 20.00     0.013 C 
HETATM   12  C4  UNL     1     -34.766   4.579   5.234  1.00 20.00     0.017 C 
ENDBRANCH   4   8
TORSDOF 3
