REMARK  3 active torsions:
REMARK  status: ('A' for Active; 'I' for Inactive)
REMARK    1  A    between atoms: C1_1  and  C7_7 
REMARK    2  A    between atoms: C2_2  and  C8_8 
REMARK    3  A    between atoms: C4_4  and  C9_9 
ROOT
HETATM    1  C8  UNL     1     -33.546   4.924   3.442  1.00 20.00     0.233 A 
HETATM    2  C9  UNL     1     -34.443   4.952   4.636  1.00 20.00     0.186 A 
HETATM    3  O10 UNL     1     -34.947   4.720   3.313  1.00 20.00    -0.358 OA
ENDROOT
BRANCH   1   4
HETATM    4  C2  UNL     1     -33.126   6.162   2.788  1.00 20.00    -0.071 C 
HETATM    5  C1  UNL     1     -32.780   7.180   2.251  1.00 20.00    -0.099 C 
BRANCH   5   6
HETATM    6  C7  UNL     1     -32.361   8.418   1.597  1.00 20.00     0.065 A 
HETATM    7  C5  UNL     1     -33.340   9.100   0.702  1.00 20.00     0.018 A 
HETATM    8  C6  UNL     1     -32.153   8.391   0.120  1.00 20.00     0.018 A 
ENDBRANCH   5   6
ENDBRANCH   1   4
BRANCH   2   9
HETATM    9  C4  UNL     1     -34.698   6.186   5.367  1.00 20.00    -0.002 C 
HETATM   10  C3  UNL     1     -33.896   6.670   6.322  1.00 20.00     0.009 C 
ENDBRANCH   2   9
TORSDOF 3
