REMARK  0 active torsions:
REMARK  status: ('A' for Active; 'I' for Inactive)
ROOT
HETATM    1  C1  UNL     1     -33.120   6.468   6.366  1.00 20.00     0.012 A 
HETATM    2  C2  UNL     1     -33.546   5.001   2.816  1.00 20.00     0.006 A 
HETATM    3  C3  UNL     1     -35.139   5.247   5.891  1.00 20.00     0.101 C 
HETATM    4  C4  UNL     1     -34.456   6.484   6.355  1.00 20.00     0.016 A 
HETATM    5  C5  UNL     1     -34.311   5.489   3.807  1.00 20.00     0.035 A 
HETATM    6  C6  UNL     1     -33.115   7.224   1.539  1.00 20.00     0.015 A 
HETATM    7  C7  UNL     1     -33.741   7.354   5.430  1.00 20.00     0.017 A 
HETATM    8  C8  UNL     1     -32.621   5.992   2.239  1.00 20.00     0.015 A 
HETATM    9  C9  UNL     1     -34.021   6.986   3.995  1.00 20.00     0.048 A 
HETATM   10  C10 UNL     1     -32.882   7.268   3.027  1.00 20.00     0.004 A 
HETATM   11  N11 UNL     1     -35.097   4.777   4.678  1.00 20.00    -0.269 NA
ENDROOT
TORSDOF 0
