REMARK  2 active torsions:
REMARK  status: ('A' for Active; 'I' for Inactive)
REMARK    1  A    between atoms: C2_2  and  C8_8 
REMARK    2  A    between atoms: C3_3  and  C7_7 
ROOT
HETATM    1  C1  UNL     1     -33.095   6.423   3.288  1.00 20.00    -0.062 A 
HETATM    2  C2  UNL     1     -33.619   5.219   3.214  1.00 20.00    -0.076 C 
HETATM    3  C4  UNL     1     -33.051   7.634   4.004  1.00 20.00     0.055 A 
HETATM    4  C7  UNL     1     -32.201   7.352   2.709  1.00 20.00     0.120 A 
HETATM    5  C9  UNL     1     -33.265   4.238   2.116  1.00 20.00     0.044 C 
ENDROOT
BRANCH   2   6
HETATM    6  C8  UNL     1     -34.625   4.700   4.219  1.00 20.00     0.014 A 
HETATM    7  C5  UNL     1     -34.461   5.140   5.619  1.00 20.00     0.010 A 
HETATM    8  C6  UNL     1     -35.579   5.679   4.778  1.00 20.00     0.010 A 
ENDBRANCH   2   6
BRANCH   4   9
HETATM    9  C3  UNL     1     -32.657   7.952   1.475  1.00 20.00     0.181 C 
HETATM   10  O10 UNL     1     -33.902   8.150   1.400  1.00 20.00    -0.647 OA
HETATM   11  O11 UNL     1     -31.745   8.198   0.637  1.00 20.00    -0.647 OA
ENDBRANCH   4   9
TORSDOF 2
