REMARK  0 active torsions:
REMARK  status: ('A' for Active; 'I' for Inactive)
ROOT
HETATM    1  C1  UNL     1     -34.483   6.551   6.095  1.00 20.00     0.020 A 
HETATM    2  C2  UNL     1     -35.034   5.675   5.114  1.00 20.00     0.038 A 
HETATM    3  C3  UNL     1     -33.340   7.131   5.566  1.00 20.00     0.093 A 
HETATM    4  C4  UNL     1     -34.200   5.768   4.038  1.00 20.00     0.073 A 
HETATM    5  C5  UNL     1     -32.271   6.876   3.290  1.00 20.00     0.085 A 
HETATM    6  C6  UNL     1     -32.535   6.030   2.257  1.00 20.00     0.065 A 
HETATM    7  C7  UNL     1     -32.483   7.421   1.963  1.00 20.00     0.061 A 
HETATM    8  N8  UNL     1     -33.210   6.673   4.284  1.00 20.00    -0.337 N 
HETATM    9  S9  UNL     1     -33.978   5.054   2.477  1.00 20.00    -0.097 SA
ENDROOT
TORSDOF 0
