REMARK  2 active torsions:
REMARK  status: ('A' for Active; 'I' for Inactive)
REMARK    1  A    between atoms: C1_1  and  C8_8 
REMARK    2  A    between atoms: C2_2  and  C9_9 
ROOT
HETATM    1  C3  UNL     1     -33.896   6.248   5.274  1.00 20.00     0.082 C 
HETATM    2  C6  UNL     1     -35.605   5.381   3.627  1.00 20.00     0.040 A 
HETATM    3  C7  UNL     1     -34.362   4.560   3.453  1.00 20.00     0.040 A 
HETATM    4  C9  UNL     1     -34.255   5.996   3.909  1.00 20.00     0.112 A 
HETATM    5  N10 UNL     1     -33.606   6.453   6.379  1.00 20.00    -0.195 NA
ENDROOT
BRANCH   4   6
HETATM    6  C2  UNL     1     -33.745   6.965   2.983  1.00 20.00    -0.081 C 
HETATM    7  C1  UNL     1     -33.317   7.777   2.208  1.00 20.00    -0.100 C 
BRANCH   7   8
HETATM    8  C8  UNL     1     -32.797   8.764   1.263  1.00 20.00     0.065 A 
HETATM    9  C4  UNL     1     -33.532   8.955  -0.020  1.00 20.00     0.018 A 
HETATM   10  C5  UNL     1     -32.200   8.265  -0.009  1.00 20.00     0.018 A 
ENDBRANCH   7   8
ENDBRANCH   4   6
TORSDOF 2
