REMARK  1 active torsions:
REMARK  status: ('A' for Active; 'I' for Inactive)
REMARK    1  A    between atoms: C1_1  and  C4_4 
ROOT
HETATM    1  C2  UNL     1     -32.438   7.591   5.441  1.00 20.00     0.014 C 
HETATM    2  C3  UNL     1     -31.701   8.165   4.227  1.00 20.00     0.012 C 
HETATM    3  C4  UNL     1     -33.628   7.268   4.514  1.00 20.00     0.064 C 
HETATM    4  C5  UNL     1     -32.157   6.260   2.439  1.00 20.00    -0.000 A 
HETATM    5  C6  UNL     1     -32.615   7.312   3.412  1.00 20.00    -0.019 A 
HETATM    6  C7  UNL     1     -32.878   7.504   1.931  1.00 20.00    -0.035 A 
HETATM    7  C9  UNL     1     -32.747   4.898   2.327  1.00 20.00     0.011 C 
HETATM    8  C10 UNL     1     -34.296   7.416   1.427  1.00 20.00     0.016 C 
HETATM    9  C11 UNL     1     -32.042   8.504   1.168  1.00 20.00     0.016 C 
ENDROOT
BRANCH   3  10
HETATM   10  C1  UNL     1     -34.368   5.956   4.755  1.00 20.00     0.128 C 
HETATM   11  C8  UNL     1     -35.788   5.879   4.265  1.00 20.00     0.091 C 
HETATM   12  O12 UNL     1     -33.829   5.006   5.322  1.00 20.00    -0.298 OA
ENDBRANCH   3  10
TORSDOF 1
