REMARK  2 active torsions:
REMARK  status: ('A' for Active; 'I' for Inactive)
REMARK    1  A    between atoms: C1_1  and  C7_7 
REMARK    2  A    between atoms: C4_4  and  C7_7 
ROOT
HETATM    1  C6  UNL     1     -31.773   7.360   3.496  1.00 20.00     0.018 C 
HETATM    2  C7  UNL     1     -33.200   7.014   3.081  1.00 20.00     0.055 C 
ENDROOT
BRANCH   2   3
HETATM    3  C1  UNL     1     -33.435   5.507   3.131  1.00 20.00     0.127 C 
HETATM    4  C5  UNL     1     -32.596   4.656   2.211  1.00 20.00     0.091 C 
HETATM    5  O8  UNL     1     -34.284   4.995   3.861  1.00 20.00    -0.298 OA
ENDBRANCH   2   3
BRANCH   2   6
HETATM    6  C4  UNL     1     -33.499   7.541   1.683  1.00 20.00    -0.004 A 
HETATM    7  C2  UNL     1     -33.244   8.984   1.346  1.00 20.00     0.006 A 
HETATM    8  C3  UNL     1     -32.374   7.909   0.757  1.00 20.00     0.006 A 
ENDBRANCH   2   6
TORSDOF 2
