REMARK  1 active torsions:
REMARK  status: ('A' for Active; 'I' for Inactive)
REMARK    1  A    between atoms: C1_1  and  C4_4 
ROOT
HETATM    1  C2  UNL     1     -32.521   5.330   2.988  1.00 20.00     0.038 C 
HETATM    2  C3  UNL     1     -34.551   5.732   2.447  1.00 20.00     0.038 C 
HETATM    3  C4  UNL     1     -33.832   4.514   3.072  1.00 20.00     0.076 C 
HETATM    4  C5  UNL     1     -33.368   6.629   2.903  1.00 20.00     0.035 C 
HETATM    5  C6  UNL     1     -32.889   7.595   1.821  1.00 20.00     0.032 C 
HETATM    6 CL9  UNL     1     -33.612   7.497   4.463  1.00 20.00    -0.120 Cl
ENDROOT
BRANCH   3   7
HETATM    7  C1  UNL     1     -34.294   4.047   4.459  1.00 20.00     0.223 C 
HETATM    8  O7  UNL     1     -34.391   4.825   5.403  1.00 20.00    -0.279 OA
HETATM    9 CL8  UNL     1     -34.640   2.344   4.494  1.00 20.00    -0.043 Cl
ENDBRANCH   3   7
TORSDOF 1
