REMARK  1 active torsions:
REMARK  status: ('A' for Active; 'I' for Inactive)
REMARK    1  A    between atoms: C3_3  and  C9_9 
ROOT
HETATM    1  C1  UNL     1     -33.675   6.822   5.580  1.00 20.00    -0.030 C 
HETATM    2  C2  UNL     1     -32.927   5.744   5.302  1.00 20.00    -0.026 C 
HETATM    3  C4  UNL     1     -35.088   6.979   5.091  1.00 20.00     0.031 C 
HETATM    4  C5  UNL     1     -33.056   4.723   3.015  1.00 20.00     0.022 C 
HETATM    5  C6  UNL     1     -34.987   4.515   4.600  1.00 20.00     0.013 C 
HETATM    6  C7  UNL     1     -35.212   6.096   2.664  1.00 20.00     0.018 C 
HETATM    7  C8  UNL     1     -33.458   4.587   4.494  1.00 20.00     0.009 C 
HETATM    8  C9  UNL     1     -33.742   5.887   2.287  1.00 20.00     0.073 C 
HETATM    9  C10 UNL     1     -35.570   5.855   4.146  1.00 20.00    -0.010 C 
ENDROOT
BRANCH   8  10
HETATM   10  C3  UNL     1     -32.958   7.162   2.434  1.00 20.00     0.223 C 
HETATM   11  O11 UNL     1     -32.797   7.698   3.527  1.00 20.00    -0.279 OA
HETATM   12 CL12 UNL     1     -32.347   7.734   0.911  1.00 20.00    -0.043 Cl
ENDBRANCH   8  10
TORSDOF 1
