REMARK  0 active torsions:
REMARK  status: ('A' for Active; 'I' for Inactive)
ROOT
HETATM    1  C1  UNL     1     -32.798   8.215   1.663  1.00 20.00     0.015 C 
HETATM    2  C2  UNL     1     -33.015   7.497   2.601  1.00 20.00    -0.076 C 
HETATM    3  C3  UNL     1     -34.454   6.616   5.955  1.00 20.00     0.004 C 
HETATM    4  C4  UNL     1     -34.223   5.110   6.005  1.00 20.00     0.003 C 
HETATM    5  C5  UNL     1     -33.420   7.304   5.067  1.00 20.00     0.055 C 
HETATM    6  C6  UNL     1     -34.445   4.480   4.633  1.00 20.00     0.042 C 
HETATM    7  C7  UNL     1     -33.275   6.641   3.722  1.00 20.00     0.154 A 
HETATM    8  C8  UNL     1     -33.747   5.202   3.510  1.00 20.00     0.102 A 
HETATM    9  C9  UNL     1     -33.993   4.656   2.135  1.00 20.00     0.050 C 
HETATM   10  O10 UNL     1     -32.375   5.511   3.762  1.00 20.00    -0.350 OA
ENDROOT
TORSDOF 0
