REMARK  2 active torsions:
REMARK  status: ('A' for Active; 'I' for Inactive)
REMARK    1  A    between atoms: C6_6  and  C7_7 
REMARK    2  A    between atoms: C6_6  and  N8_8 
ROOT
HETATM    1  C1  UNL     1     -33.321   6.809   4.093  1.00 20.00     0.283 C 
HETATM    2  C2  UNL     1     -34.720   6.391   4.531  1.00 20.00     0.105 C 
HETATM    3  C3  UNL     1     -33.497   4.880   2.753  1.00 20.00     0.346 C 
HETATM    4  N8  UNL     1     -33.034   6.275   2.751  1.00 20.00     0.098 N 
HETATM    5  S9  UNL     1     -34.887   4.704   3.907  1.00 20.00    -0.138 SA
ENDROOT
BRANCH   4   6
HETATM    6  C6  UNL     1     -33.685   7.060   1.702  1.00 20.00     0.277 C 
BRANCH   6   7
HETATM    7  C7  UNL     1     -32.874   8.310   1.341  1.00 20.00     0.006 C 
HETATM    8  C4  UNL     1     -31.473   7.967   0.831  1.00 20.00     0.011 C 
HETATM    9  C5  UNL     1     -33.608   9.202   0.339  1.00 20.00     0.011 C 
ENDBRANCH   6   7
ENDBRANCH   4   6
TORSDOF 2
