REMARK  2 active torsions:
REMARK  status: ('A' for Active; 'I' for Inactive)
REMARK    1  A    between atoms: C1_1  and  C8_8 
REMARK    2  A    between atoms: C3_3  and  C9_9 
ROOT
HETATM    1  C4  UNL     1     -32.870   7.257   4.821  1.00 20.00     0.009 C 
HETATM    2  C5  UNL     1     -32.838   5.454   3.028  1.00 20.00     0.009 C 
HETATM    3  C6  UNL     1     -34.395   7.160   4.892  1.00 20.00     0.012 C 
HETATM    4  C7  UNL     1     -34.362   5.345   3.112  1.00 20.00     0.012 C 
HETATM    5  C8  UNL     1     -32.290   6.799   3.489  1.00 20.00     0.008 C 
HETATM    6  C9  UNL     1     -34.942   5.811   4.441  1.00 20.00     0.047 C 
ENDROOT
BRANCH   5   7
HETATM    7  C1  UNL     1     -32.569   7.857   2.434  1.00 20.00    -0.026 C 
HETATM    8  C2  UNL     1     -32.689   7.593   1.125  1.00 20.00    -0.035 C 
HETATM    9  C10 UNL     1     -32.964   8.632   0.089  1.00 20.00     0.036 C 
ENDBRANCH   5   7
BRANCH   6  10
HETATM   10  C3  UNL     1     -34.662   4.781   5.523  1.00 20.00     0.235 C 
HETATM   11  O11 UNL     1     -34.043   5.032   6.552  1.00 20.00    -0.306 OA
ENDBRANCH   6  10
TORSDOF 2
