REMARK  0 active torsions:
REMARK  status: ('A' for Active; 'I' for Inactive)
ROOT
HETATM    1  C1  UNL     1     -34.379   7.096   6.264  1.00 20.00     0.003 A 
HETATM    2  C2  UNL     1     -34.572   5.782   6.063  1.00 20.00     0.013 A 
HETATM    3  C3  UNL     1     -33.845   7.704   5.055  1.00 20.00     0.030 A 
HETATM    4  C4  UNL     1     -34.225   4.382   4.010  1.00 20.00    -0.011 C 
HETATM    5  C5  UNL     1     -34.168   5.524   4.702  1.00 20.00    -0.013 A 
HETATM    6  C6  UNL     1     -33.698   6.765   4.103  1.00 20.00     0.039 A 
HETATM    7  C7  UNL     1     -33.800   4.344   2.568  1.00 20.00     0.048 C 
HETATM    8  C8  UNL     1     -32.887   5.509   2.142  1.00 20.00     0.126 C 
HETATM    9  C9  UNL     1     -32.734   7.991   2.170  1.00 20.00     0.149 C 
HETATM   10  N10 UNL     1     -33.231   6.778   2.806  1.00 20.00    -0.384 N 
ENDROOT
TORSDOF 0
