REMARK  2 active torsions:
REMARK  status: ('A' for Active; 'I' for Inactive)
REMARK    1  A    between atoms: C4_4  and  C6_6 
REMARK    2  A    between atoms: C7_7  and  O10_10 
ROOT
HETATM    1  C1  UNL     1     -33.189   8.173   1.135  1.00 20.00     0.218 C 
HETATM    2  C4  UNL     1     -33.930   7.472   1.942  1.00 20.00     0.043 C 
HETATM    3  O9  UNL     1     -32.519   8.807   0.405  1.00 20.00    -0.284 OA
ENDROOT
BRANCH   2   4
HETATM    4  C6  UNL     1     -33.409   6.591   3.032  1.00 20.00     0.064 C 
HETATM    5  C3  UNL     1     -33.201   5.182   2.561  1.00 20.00    -0.020 C 
HETATM    6  C2  UNL     1     -34.096   4.335   3.079  1.00 20.00    -0.027 C 
HETATM    7  C5  UNL     1     -35.066   5.028   3.977  1.00 20.00     0.059 C 
HETATM    8  C7  UNL     1     -34.418   6.403   4.182  1.00 20.00     0.135 C 
BRANCH   8   9
HETATM    9  O10 UNL     1     -33.721   6.396   5.429  1.00 20.00    -0.389 OA
HETATM   10  C8  UNL     1     -34.611   6.592   6.517  1.00 20.00     0.202 C 
ENDBRANCH   8   9
ENDBRANCH   2   4
TORSDOF 2
