REMARK  3 active torsions:
REMARK  status: ('A' for Active; 'I' for Inactive)
REMARK    1  A    between atoms: C3_3  and  C7_7 
REMARK    2  A    between atoms: C4_4  and  O11_11 
REMARK    3  A    between atoms: C7_7  and  C8_8 
ROOT
HETATM    1  C1  UNL     1     -32.397   5.699   2.376  1.00 20.00     0.180 C 
HETATM    2  C2  UNL     1     -32.461   7.306   4.283  1.00 20.00     0.180 C 
HETATM    3  C3  UNL     1     -32.115   7.143   2.800  1.00 20.00     0.034 C 
HETATM    4  C4  UNL     1     -33.967   5.499   4.123  1.00 20.00     0.412 C 
HETATM    5  O9  UNL     1     -33.729   5.322   2.723  1.00 20.00    -0.339 OA
HETATM    6  O10 UNL     1     -33.790   6.855   4.544  1.00 20.00    -0.339 OA
ENDROOT
BRANCH   3   7
HETATM    7  C7  UNL     1     -32.932   8.121   1.949  1.00 20.00     0.008 C 
BRANCH   7   8
HETATM    8  C8  UNL     1     -32.561   8.017   0.471  1.00 20.00    -0.004 C 
HETATM    9  C5  UNL     1     -33.391   8.968  -0.377  1.00 20.00     0.005 C 
ENDBRANCH   7   8
ENDBRANCH   3   7
BRANCH   4  10
HETATM   10  O11 UNL     1     -35.289   5.068   4.442  1.00 20.00    -0.344 OA
HETATM   11  C6  UNL     1     -36.263   5.840   3.759  1.00 20.00     0.207 C 
ENDBRANCH   4  10
TORSDOF 3
