REMARK  1 active torsions:
REMARK  status: ('A' for Active; 'I' for Inactive)
REMARK    1  A    between atoms: C1_1  and  C7_7 
ROOT
HETATM    1  C2  UNL     1     -33.543   4.446   3.323  1.00 20.00     0.004 C 
HETATM    2  C3  UNL     1     -34.369   4.746   4.568  1.00 20.00     0.037 C 
HETATM    3  C4  UNL     1     -33.539   5.626   2.351  1.00 20.00     0.016 C 
HETATM    4  C5  UNL     1     -33.920   7.213   4.286  1.00 20.00     0.053 C 
HETATM    5  C6  UNL     1     -33.913   6.029   5.247  1.00 20.00     0.171 C 
HETATM    6  C7  UNL     1     -33.107   6.953   3.005  1.00 20.00     0.012 C 
HETATM    7  C8  UNL     1     -31.599   6.974   3.286  1.00 20.00     0.023 C 
HETATM    8  F10 UNL     1     -34.766   6.301   6.273  1.00 20.00    -0.249 F 
ENDROOT
BRANCH   6   9
HETATM    9  C1  UNL     1     -33.383   8.073   2.033  1.00 20.00     0.240 C 
HETATM   10  O9  UNL     1     -32.877   8.140   0.918  1.00 20.00    -0.306 OA
ENDBRANCH   6   9
TORSDOF 1
