REMARK  1 active torsions:
REMARK  status: ('A' for Active; 'I' for Inactive)
REMARK    1  A    between atoms: C1_1  and  C5_5 
ROOT
HETATM    1  C2  UNL     1     -32.733   7.565   5.503  1.00 20.00     0.002 C 
HETATM    2  C3  UNL     1     -32.550   7.391   3.994  1.00 20.00     0.017 C 
HETATM    3  C4  UNL     1     -34.011   6.819   5.877  1.00 20.00     0.010 C 
HETATM    4  C5  UNL     1     -33.789   6.625   3.488  1.00 20.00     0.023 C 
HETATM    5  C6  UNL     1     -34.241   5.806   4.738  1.00 20.00    -0.034 C 
HETATM    6  C8  UNL     1     -34.838   7.620   2.965  1.00 20.00     0.024 C 
HETATM    7  C9  UNL     1     -33.359   4.559   4.987  1.00 20.00     0.016 C 
HETATM    8  C10 UNL     1     -35.706   5.352   4.707  1.00 20.00     0.016 C 
ENDROOT
BRANCH   4   9
HETATM    9  C1  UNL     1     -33.420   5.746   2.322  1.00 20.00     0.132 C 
HETATM   10  C7  UNL     1     -32.856   6.433   1.109  1.00 20.00     0.091 C 
HETATM   11  O11 UNL     1     -33.571   4.525   2.361  1.00 20.00    -0.298 OA
ENDBRANCH   4   9
TORSDOF 1
