REMARK  1 active torsions:
REMARK  status: ('A' for Active; 'I' for Inactive)
REMARK    1  A    between atoms: C3_3  and  C7_7 
ROOT
HETATM    1  C1  UNL     1     -34.518   4.998   3.189  1.00 20.00     0.346 C 
HETATM    2  C2  UNL     1     -33.204   6.689   4.193  1.00 20.00     0.233 C 
HETATM    3  C3  UNL     1     -32.629   6.797   2.762  1.00 20.00     0.081 C 
HETATM    4  C4  UNL     1     -33.129   8.017   4.949  1.00 20.00     0.044 C 
HETATM    5  C6  UNL     1     -35.238   5.876   5.314  1.00 20.00     0.311 C 
HETATM    6  N8  UNL     1     -34.586   6.186   4.046  1.00 20.00     0.098 N 
HETATM    7  S9  UNL     1     -33.206   5.264   1.967  1.00 20.00    -0.132 SA
ENDROOT
BRANCH   3   8
HETATM    8  C7  UNL     1     -33.121   7.987   1.942  1.00 20.00     0.013 C 
HETATM    9  C5  UNL     1     -32.618   7.935   0.537  1.00 20.00     0.006 C 
ENDBRANCH   3   8
TORSDOF 1
