REMARK  1 active torsions:
REMARK  status: ('A' for Active; 'I' for Inactive)
REMARK    1  A    between atoms: C2_2  and  C4_4 
ROOT
HETATM    1  C1  UNL     1     -32.884   7.073   2.856  1.00 20.00     0.131 C 
HETATM    2  C3  UNL     1     -33.043   7.111   5.021  1.00 20.00     0.191 C 
HETATM    3  C4  UNL     1     -34.359   6.660   4.422  1.00 20.00     0.219 C 
HETATM    4  C5  UNL     1     -32.441   7.141   1.441  1.00 20.00     0.099 C 
HETATM    5  N7  UNL     1     -32.113   7.203   3.886  1.00 20.00    -0.268 NA
HETATM    6  O9  UNL     1     -34.205   6.844   3.027  1.00 20.00    -0.323 OA
ENDROOT
BRANCH   3   7
HETATM    7  C2  UNL     1     -34.626   5.205   4.643  1.00 20.00     0.153 C 
HETATM    8  C6  UNL     1     -34.836   4.765   6.067  1.00 20.00     0.093 C 
HETATM    9  O8  UNL     1     -34.673   4.408   3.708  1.00 20.00    -0.295 OA
ENDBRANCH   3   7
TORSDOF 1
