REMARK  2 active torsions:
REMARK  status: ('A' for Active; 'I' for Inactive)
REMARK    1  A    between atoms: C1_1  and  C3_3 
REMARK    2  A    between atoms: C2_2  and  C7_7 
ROOT
HETATM    1  C4  UNL     1     -32.949   9.609   0.134  1.00 20.00     0.002 C 
HETATM    2  C5  UNL     1     -32.555   8.122   0.090  1.00 20.00     0.013 C 
HETATM    3  C6  UNL     1     -33.382   9.401   1.595  1.00 20.00     0.013 C 
HETATM    4  C7  UNL     1     -32.466   8.137   1.649  1.00 20.00    -0.026 C 
HETATM    5  C9  UNL     1     -31.059   8.425   2.177  1.00 20.00     0.019 C 
ENDROOT
BRANCH   4   6
HETATM    6  C2  UNL     1     -33.085   6.901   2.360  1.00 20.00    -0.014 C 
HETATM    7  C1  UNL     1     -33.629   6.951   3.583  1.00 20.00     0.046 C 
BRANCH   7   8
HETATM    8  C3  UNL     1     -34.205   5.728   4.208  1.00 20.00     0.145 C 
HETATM    9  C8  UNL     1     -34.794   5.882   5.586  1.00 20.00     0.096 C 
HETATM   10  O10 UNL     1     -34.194   4.637   3.643  1.00 20.00    -0.294 OA
ENDBRANCH   7   8
ENDBRANCH   4   6
TORSDOF 2
