REMARK  1 active torsions:
REMARK  status: ('A' for Active; 'I' for Inactive)
REMARK    1  A    between atoms: C2_2  and  C3_3 
ROOT
HETATM    1  C1  UNL     1     -32.366   5.772   2.974  1.00 20.00    -0.011 C 
HETATM    2  C2  UNL     1     -33.021   6.871   2.573  1.00 20.00    -0.019 C 
HETATM    3  C4  UNL     1     -34.454   4.599   3.439  1.00 20.00     0.010 C 
HETATM    4  C5  UNL     1     -35.204   5.879   2.964  1.00 20.00     0.011 C 
HETATM    5  C6  UNL     1     -33.185   5.183   4.111  1.00 20.00     0.017 C 
HETATM    6  C7  UNL     1     -34.260   7.018   3.428  1.00 20.00     0.030 C 
HETATM    7  C8  UNL     1     -33.713   6.484   4.780  1.00 20.00    -0.033 C 
HETATM    8  C9  UNL     1     -32.615   7.365   5.421  1.00 20.00     0.016 C 
HETATM    9  C10 UNL     1     -34.780   6.264   5.869  1.00 20.00     0.016 C 
ENDROOT
BRANCH   2  10
HETATM   10  C3  UNL     1     -32.618   7.754   1.500  1.00 20.00     0.265 C 
HETATM   11  O11 UNL     1     -33.260   8.756   1.170  1.00 20.00    -0.302 OA
ENDBRANCH   2  10
TORSDOF 1
