REMARK  2 active torsions:
REMARK  status: ('A' for Active; 'I' for Inactive)
REMARK    1  A    between atoms: C1_1  and  C5_5 
REMARK    2  A    between atoms: C5_5  and  O8_8 
ROOT
HETATM    1  C2  UNL     1     -34.990   4.889   5.669  1.00 20.00     0.007 C 
HETATM    2  C3  UNL     1     -35.553   5.406   4.335  1.00 20.00     0.047 C 
HETATM    3  C4  UNL     1     -33.700   4.519   4.921  1.00 20.00     0.047 C 
HETATM    4  C5  UNL     1     -34.086   5.562   3.826  1.00 20.00     0.136 C 
ENDROOT
BRANCH   4   5
HETATM    5  C1  UNL     1     -33.466   6.976   3.988  1.00 20.00     0.253 C 
HETATM    6  O7  UNL     1     -33.345   7.505   5.089  1.00 20.00    -0.276 OA
HETATM    7 CL9  UNL     1     -32.995   7.663   2.463  1.00 20.00    -0.041 Cl
ENDBRANCH   4   5
BRANCH   4   8
HETATM    8  O8  UNL     1     -33.894   5.087   2.474  1.00 20.00    -0.376 OA
HETATM    9  C6  UNL     1     -32.585   4.582   2.307  1.00 20.00     0.203 C 
ENDBRANCH   4   8
TORSDOF 2
