REMARK  0 active torsions:
REMARK  status: ('A' for Active; 'I' for Inactive)
ROOT
HETATM    1  C1  UNL     1     -33.439   6.580   6.374  1.00 20.00     0.012 A 
HETATM    2  C2  UNL     1     -33.226   5.077   2.783  1.00 20.00     0.006 A 
HETATM    3  C3  UNL     1     -34.844   4.703   5.843  1.00 20.00     0.101 C 
HETATM    4  C4  UNL     1     -34.685   6.105   6.316  1.00 20.00     0.016 A 
HETATM    5  C5  UNL     1     -34.119   5.241   3.773  1.00 20.00     0.035 A 
HETATM    6  C6  UNL     1     -31.939   7.285   3.063  1.00 20.00     0.015 A 
HETATM    7  C7  UNL     1     -34.307   7.182   5.407  1.00 20.00     0.017 A 
HETATM    8  C8  UNL     1     -32.750   6.349   2.212  1.00 20.00     0.015 A 
HETATM    9  C9  UNL     1     -34.391   6.739   3.971  1.00 20.00     0.048 A 
HETATM   10  C10 UNL     1     -33.437   7.440   3.020  1.00 20.00     0.004 A 
HETATM   11  N11 UNL     1     -34.597   4.286   4.635  1.00 20.00    -0.269 NA
ENDROOT
TORSDOF 0
