REMARK  2 active torsions:
REMARK  status: ('A' for Active; 'I' for Inactive)
REMARK    1  A    between atoms: C3_3  and  C5_5 
REMARK    2  A    between atoms: C3_3  and  O8_8 
ROOT
HETATM    1  C1  UNL     1     -34.017   6.937   5.163  1.00 20.00    -0.005 C 
HETATM    2  C2  UNL     1     -33.806   6.233   6.279  1.00 20.00     0.042 C 
HETATM    3  C4  UNL     1     -34.993   4.785   4.509  1.00 20.00     0.097 C 
HETATM    4  C5  UNL     1     -34.550   6.160   4.001  1.00 20.00     0.118 C 
HETATM    5  S9  UNL     1     -34.199   4.555   6.140  1.00 20.00    -0.141 SA
ENDROOT
BRANCH   4   6
HETATM    6  C3  UNL     1     -33.442   6.049   2.999  1.00 20.00     0.267 C 
HETATM    7  O7  UNL     1     -32.975   4.988   2.608  1.00 20.00    -0.265 OA
BRANCH   6   8
HETATM    8  O8  UNL     1     -33.053   7.297   2.610  1.00 20.00    -0.326 OA
HETATM    9  C6  UNL     1     -31.993   7.338   1.649  1.00 20.00     0.213 C 
ENDBRANCH   6   8
ENDBRANCH   4   6
TORSDOF 2
