REMARK  1 active torsions:
REMARK  status: ('A' for Active; 'I' for Inactive)
REMARK    1  A    between atoms: C3_3  and  C7_7 
ROOT
HETATM    1  C1  UNL     1     -34.143   5.097   4.498  1.00 20.00    -0.020 C 
HETATM    2  C2  UNL     1     -33.906   6.405   4.699  1.00 20.00    -0.086 C 
HETATM    3  C4  UNL     1     -33.303   7.285   3.632  1.00 20.00     0.045 C 
HETATM    4  C5  UNL     1     -33.614   5.350   2.039  1.00 20.00     0.020 C 
HETATM    5  C6  UNL     1     -33.872   4.377   3.202  1.00 20.00     0.005 C 
HETATM    6  C7  UNL     1     -32.704   6.505   2.455  1.00 20.00     0.059 C 
HETATM    7  C8  UNL     1     -34.232   7.077   6.000  1.00 20.00     0.043 C 
HETATM    8  C10 UNL     1     -32.711   3.397   3.386  1.00 20.00     0.014 C 
ENDROOT
BRANCH   6   9
HETATM    9  C3  UNL     1     -32.495   7.435   1.299  1.00 20.00     0.127 C 
HETATM   10  C9  UNL     1     -31.874   6.847   0.061  1.00 20.00     0.091 C 
HETATM   11  O11 UNL     1     -32.816   8.621   1.359  1.00 20.00    -0.298 OA
ENDBRANCH   6   9
TORSDOF 1
