REMARK  3 active torsions:
REMARK  status: ('A' for Active; 'I' for Inactive)
REMARK    1  A    between atoms: C1_1  and  C7_7 
REMARK    2  A    between atoms: C2_2  and  C9_9 
REMARK    3  A    between atoms: C9_9  and  C10_10 
ROOT
HETATM    1  C3  UNL     1     -34.656   5.762   5.284  1.00 20.00     0.128 C 
HETATM    2  C4  UNL     1     -34.735   4.515   4.442  1.00 20.00     0.079 C 
HETATM    3  C5  UNL     1     -33.798   6.827   4.649  1.00 20.00     0.095 C 
HETATM    4  C6  UNL     1     -34.136   4.993   3.124  1.00 20.00     0.025 C 
HETATM    5  C7  UNL     1     -33.106   6.045   3.532  1.00 20.00     0.072 C 
HETATM    6  O11 UNL     1     -35.223   5.894   6.361  1.00 20.00    -0.298 OA
ENDROOT
BRANCH   5   7
HETATM    7  C1  UNL     1     -32.715   6.907   2.413  1.00 20.00    -0.101 C 
HETATM    8  C2  UNL     1     -32.395   7.614   1.497  1.00 20.00    -0.106 C 
BRANCH   8   9
HETATM    9  C9  UNL     1     -32.000   8.477   0.374  1.00 20.00     0.093 C 
BRANCH   9  10
HETATM   10  C10 UNL     1     -32.693   9.839   0.419  1.00 20.00     0.007 C 
HETATM   11  C8  UNL     1     -34.211   9.738   0.354  1.00 20.00     0.006 C 
ENDBRANCH   9  10
ENDBRANCH   8   9
ENDBRANCH   5   7
TORSDOF 3
