REMARK  1 active torsions:
REMARK  status: ('A' for Active; 'I' for Inactive)
REMARK    1  A    between atoms: C3_3  and  N9_9 
ROOT
HETATM    1  C1  UNL     1     -32.846   6.646   2.233  1.00 20.00     0.096 C 
HETATM    2  C2  UNL     1     -33.574   5.701   3.010  1.00 20.00     0.040 A 
HETATM    3  C3  UNL     1     -34.190   5.784   4.212  1.00 20.00     0.005 A 
HETATM    4  C4  UNL     1     -33.933   4.258   2.778  1.00 20.00     0.057 A 
HETATM    5  C5  UNL     1     -34.633   4.320   4.141  1.00 20.00     0.057 A 
HETATM    6  N8  UNL     1     -32.252   7.417   1.601  1.00 20.00    -0.192 NA
ENDROOT
BRANCH   3   7
HETATM    7  N9  UNL     1     -34.410   6.664   5.168  1.00 20.00    -0.283 NA
HETATM    8  C6  UNL     1     -33.893   6.343   6.508  1.00 20.00     0.110 A 
HETATM    9  C7  UNL     1     -33.243   7.393   5.691  1.00 20.00     0.110 A 
ENDBRANCH   3   7
TORSDOF 1
