REMARK  1 active torsions:
REMARK  status: ('A' for Active; 'I' for Inactive)
REMARK    1  A    between atoms: C5_5  and  O10_10 
ROOT
HETATM    1  C1  UNL     1     -34.057   4.991   2.841  1.00 20.00     0.011 A 
HETATM    2  C2  UNL     1     -34.778   4.622   3.979  1.00 20.00     0.040 A 
HETATM    3  C3  UNL     1     -33.305   6.152   2.889  1.00 20.00    -0.049 A 
HETATM    4  C4  UNL     1     -33.253   6.932   4.050  1.00 20.00    -0.010 A 
HETATM    5  C5  UNL     1     -34.727   5.405   5.144  1.00 20.00     0.104 A 
HETATM    6  C6  UNL     1     -33.954   6.568   5.187  1.00 20.00     0.156 A 
HETATM    7  C7  UNL     1     -32.428   6.727   1.821  1.00 20.00     0.039 C 
HETATM    8  C8  UNL     1     -32.337   8.100   3.867  1.00 20.00     0.042 C 
HETATM    9  C9  UNL     1     -32.236   8.162   2.335  1.00 20.00     0.009 C 
HETATM   10  F11 UNL     1     -33.891   7.310   6.299  1.00 20.00    -0.203 F 
ENDROOT
BRANCH   5  11
HETATM   11  O10 UNL     1     -35.433   5.020   6.244  1.00 20.00    -0.358 OA
HETATM   12  H20 UNL     1     -35.912   4.197   6.063  1.00 20.00     0.217 HD
ENDBRANCH   5  11
TORSDOF 1
