REMARK  1 active torsions:
REMARK  status: ('A' for Active; 'I' for Inactive)
REMARK    1  A    between atoms: C3_3  and  C4_4 
ROOT
HETATM    1  C1  UNL     1     -32.779   7.627   4.611  1.00 20.00     0.061 C 
HETATM    2  C2  UNL     1     -33.431   6.833   5.463  1.00 20.00     0.087 C 
HETATM    3  C4  UNL     1     -32.969   7.144   3.213  1.00 20.00     0.376 C 
HETATM    4  C5  UNL     1     -34.115   5.740   4.719  1.00 20.00     0.463 C 
HETATM    5  C6  UNL     1     -33.828   4.984   2.400  1.00 20.00     0.324 C 
HETATM    6  N7  UNL     1     -34.019   6.111   3.296  1.00 20.00     0.211 N 
HETATM    7  F9  UNL     1     -31.805   6.645   2.717  1.00 20.00    -0.195 F 
HETATM    8  F10 UNL     1     -33.524   4.543   4.974  1.00 20.00    -0.169 F 
HETATM    9  F11 UNL     1     -35.419   5.624   5.075  1.00 20.00    -0.169 F 
ENDROOT
BRANCH   3  10
HETATM   10  C3  UNL     1     -33.488   8.265   2.377  1.00 20.00     0.312 C 
HETATM   11  O8  UNL     1     -32.901   8.704   1.394  1.00 20.00    -0.301 OA
ENDBRANCH   3  10
TORSDOF 1
