REMARK  0 active torsions:
REMARK  status: ('A' for Active; 'I' for Inactive)
ROOT
HETATM    1  C1  UNL     1     -32.802   9.222   0.541  1.00 20.00     0.012 C 
HETATM    2  C2  UNL     1     -33.143   8.296   1.224  1.00 20.00    -0.111 C 
HETATM    3  C3  UNL     1     -33.728   5.966   4.024  1.00 20.00     0.132 C 
HETATM    4  C4  UNL     1     -33.354   4.957   2.956  1.00 20.00     0.084 C 
HETATM    5  C5  UNL     1     -31.785   7.372   3.699  1.00 20.00     0.014 C 
HETATM    6  C6  UNL     1     -31.328   6.406   2.587  1.00 20.00     0.007 C 
HETATM    7  C7  UNL     1     -33.561   7.165   2.058  1.00 20.00     0.080 C 
HETATM    8  C8  UNL     1     -33.315   7.352   3.560  1.00 20.00     0.071 C 
HETATM    9  C9  UNL     1     -32.660   5.923   1.964  1.00 20.00     0.009 C 
HETATM   10  O10 UNL     1     -34.246   5.701   5.097  1.00 20.00    -0.298 OA
ENDROOT
TORSDOF 0
