REMARK  3 active torsions:
REMARK  status: ('A' for Active; 'I' for Inactive)
REMARK    1  A    between atoms: C1_1  and  C5_5 
REMARK    2  A    between atoms: C6_6  and  C8_8 
REMARK    3  A    between atoms: C8_8  and  C9_9 
ROOT
HETATM    1  C2  UNL     1     -34.278   6.148   1.645  1.00 20.00     0.030 C 
HETATM    2  C3  UNL     1     -32.412   5.320   2.240  1.00 20.00     0.030 C 
HETATM    3  C4  UNL     1     -32.996   7.240   2.944  1.00 20.00     0.030 C 
HETATM    4  C5  UNL     1     -33.645   5.836   3.023  1.00 20.00     0.050 C 
HETATM    5  C6  UNL     1     -32.788   6.660   1.485  1.00 20.00    -0.037 C 
ENDROOT
BRANCH   4   6
HETATM    6  C1  UNL     1     -34.276   5.228   4.164  1.00 20.00     0.181 C 
HETATM    7  O10 UNL     1     -34.825   6.031   4.969  1.00 20.00    -0.647 OA
HETATM    8  O11 UNL     1     -34.195   3.968   4.206  1.00 20.00    -0.647 OA
ENDBRANCH   4   6
BRANCH   5   9
HETATM    9  C8  UNL     1     -32.137   7.288   0.315  1.00 20.00     0.009 C 
BRANCH   9  10
HETATM   10  C9  UNL     1     -32.841   8.583  -0.141  1.00 20.00    -0.004 C 
HETATM   11  C7  UNL     1     -32.905   9.639   0.951  1.00 20.00     0.005 C 
ENDBRANCH   9  10
ENDBRANCH   5   9
TORSDOF 3
