REMARK  1 active torsions:
REMARK  status: ('A' for Active; 'I' for Inactive)
REMARK    1  A    between atoms: C1_1  and  C4_4 
ROOT
HETATM    1  C1  UNL     1     -33.030   7.393   2.365  1.00 20.00    -0.047 C 
HETATM    2  C2  UNL     1     -32.993   8.382   1.685  1.00 20.00    -0.106 C 
HETATM    3  C6  UNL     1     -32.947   9.587   0.858  1.00 20.00     0.112 C 
ENDROOT
BRANCH   1   4
HETATM    4  C4  UNL     1     -33.076   6.188   3.194  1.00 20.00     0.343 C 
HETATM    5  O8  UNL     1     -33.853   5.172   2.543  1.00 20.00    -0.348 OA
HETATM    6  C3  UNL     1     -34.678   4.637   3.578  1.00 20.00     0.203 C 
HETATM    7  C5  UNL     1     -34.916   5.827   4.474  1.00 20.00     0.145 C 
HETATM    8  C7  UNL     1     -35.332   5.464   5.884  1.00 20.00     0.042 C 
HETATM    9  O9  UNL     1     -33.647   6.488   4.477  1.00 20.00    -0.343 OA
ENDBRANCH   1   4
TORSDOF 1
