REMARK  0 active torsions:
REMARK  status: ('A' for Active; 'I' for Inactive)
ROOT
HETATM    1  C1  UNL     1     -33.022   7.802   1.972  1.00 20.00     0.089 C 
HETATM    2  C2  UNL     1     -33.742   6.248   3.666  1.00 20.00     0.017 C 
HETATM    3  C3  UNL     1     -33.354   7.480   3.312  1.00 20.00     0.118 C 
HETATM    4  C4  UNL     1     -33.856   5.116   2.674  1.00 20.00     0.059 C 
HETATM    5  C5  UNL     1     -33.847   3.879   3.575  1.00 20.00     0.026 C 
HETATM    6  C6  UNL     1     -34.449   4.358   4.898  1.00 20.00     0.122 C 
HETATM    7  C7  UNL     1     -34.263   6.540   6.125  1.00 20.00     0.149 C 
HETATM    8  N8  UNL     1     -32.749   8.071   0.877  1.00 20.00    -0.192 NA
HETATM    9  N9  UNL     1     -34.085   5.767   4.917  1.00 20.00    -0.388 N 
ENDROOT
TORSDOF 0
