REMARK  0 active torsions:
REMARK  status: ('A' for Active; 'I' for Inactive)
ROOT
HETATM    1  C1  UNL     1     -33.512   4.933   2.138  1.00 20.00     0.029 C 
HETATM    2  C2  UNL     1     -33.699   4.260   3.497  1.00 20.00     0.046 C 
HETATM    3  C3  UNL     1     -32.666   6.192   2.277  1.00 20.00     0.167 C 
HETATM    4  C4  UNL     1     -33.300   6.519   4.542  1.00 20.00     0.209 C 
HETATM    5  C5  UNL     1     -34.165   5.256   4.565  1.00 20.00     0.134 C 
HETATM    6  O6  UNL     1     -33.240   7.086   3.230  1.00 20.00    -0.388 OA
HETATM    7 CL7  UNL     1     -35.882   5.710   4.273  1.00 20.00    -0.099 Cl
HETATM    8 CL8  UNL     1     -34.070   4.492   6.183  1.00 20.00    -0.099 Cl
ENDROOT
TORSDOF 0
