REMARK  1 active torsions:
REMARK  status: ('A' for Active; 'I' for Inactive)
REMARK    1  A    between atoms: C2_2  and  C6_6 
ROOT
HETATM    1  C3  UNL     1     -34.291   4.802   6.489  1.00 20.00     0.031 C 
HETATM    2  C4  UNL     1     -34.691   6.246   6.172  1.00 20.00     0.032 C 
HETATM    3  C5  UNL     1     -32.871   4.711   4.401  1.00 20.00     0.040 C 
HETATM    4  C6  UNL     1     -33.225   6.185   4.118  1.00 20.00     0.042 C 
HETATM    5  C7  UNL     1     -34.037   4.068   5.167  1.00 20.00     0.131 C 
HETATM    6  C8  UNL     1     -34.655   6.435   4.648  1.00 20.00     0.139 C 
HETATM    7  N10 UNL     1     -35.251   4.219   4.329  1.00 20.00    -0.192 NA
HETATM    8  N11 UNL     1     -35.559   5.412   4.060  1.00 20.00    -0.192 NA
ENDROOT
BRANCH   4   9
HETATM    9  C2  UNL     1     -33.093   6.524   2.663  1.00 20.00    -0.087 C 
HETATM   10  C1  UNL     1     -33.308   5.615   1.701  1.00 20.00     0.014 C 
HETATM   11  C9  UNL     1     -32.707   7.938   2.346  1.00 20.00     0.043 C 
ENDBRANCH   4   9
TORSDOF 1
