REMARK  1 active torsions:
REMARK  status: ('A' for Active; 'I' for Inactive)
REMARK    1  A    between atoms: C3_3  and  C9_9 
ROOT
HETATM    1  C1  UNL     1     -34.728   5.658   4.006  1.00 20.00    -0.030 C 
HETATM    2  C2  UNL     1     -34.280   5.033   2.906  1.00 20.00    -0.026 C 
HETATM    3  C4  UNL     1     -33.886   6.637   4.779  1.00 20.00     0.031 C 
HETATM    4  C5  UNL     1     -32.895   6.164   1.150  1.00 20.00     0.022 C 
HETATM    5  C6  UNL     1     -31.953   5.782   3.454  1.00 20.00     0.013 C 
HETATM    6  C7  UNL     1     -32.949   8.058   2.885  1.00 20.00     0.018 C 
HETATM    7  C8  UNL     1     -32.877   5.219   2.366  1.00 20.00     0.009 C 
HETATM    8  C9  UNL     1     -32.493   7.610   1.491  1.00 20.00     0.073 C 
HETATM    9  C10 UNL     1     -32.609   7.052   4.014  1.00 20.00    -0.010 C 
ENDROOT
BRANCH   8  10
HETATM   10  C3  UNL     1     -33.050   8.549   0.465  1.00 20.00     0.223 C 
HETATM   11  O11 UNL     1     -33.269   8.189  -0.688  1.00 20.00    -0.279 OA
HETATM   12 CL12 UNL     1     -33.325  10.138   1.112  1.00 20.00    -0.043 Cl
ENDBRANCH   8  10
TORSDOF 1
