REMARK  0 active torsions:
REMARK  status: ('A' for Active; 'I' for Inactive)
ROOT
HETATM    1  C1  UNL     1     -34.625   5.758   3.789  1.00 20.00     0.007 C 
HETATM    2  C2  UNL     1     -32.756   7.099   3.819  1.00 20.00     0.226 C 
HETATM    3  C3  UNL     1     -35.813   5.297   4.192  1.00 20.00     0.038 C 
HETATM    4  C4  UNL     1     -33.859   5.338   2.565  1.00 20.00     0.043 C 
HETATM    5  C5  UNL     1     -32.726   6.391   2.475  1.00 20.00     0.083 C 
HETATM    6  C6  UNL     1     -33.288   3.927   2.718  1.00 20.00     0.017 C 
HETATM    7  C7  UNL     1     -32.974   7.406   1.365  1.00 20.00     0.020 C 
HETATM    8  N8  UNL     1     -33.915   6.707   4.464  1.00 20.00    -0.331 N 
HETATM    9  O9  UNL     1     -31.927   7.905   4.214  1.00 20.00    -0.273 OA
HETATM   10  H20 UNL     1     -34.216   7.085   5.356  1.00 20.00     0.168 HD
ENDROOT
TORSDOF 0
