REMARK  1 active torsions:
REMARK  status: ('A' for Active; 'I' for Inactive)
REMARK    1  A    between atoms: C5_5  and  C9_9 
ROOT
HETATM    1  C1  UNL     1     -34.141   4.768   1.762  1.00 20.00    -0.029 C 
HETATM    2  C2  UNL     1     -34.741   5.975   1.766  1.00 20.00    -0.021 C 
HETATM    3  C3  UNL     1     -32.892   7.571   2.110  1.00 20.00    -0.021 C 
HETATM    4  C4  UNL     1     -31.903   6.778   2.554  1.00 20.00    -0.024 C 
HETATM    5  C6  UNL     1     -32.930   4.478   2.635  1.00 20.00     0.036 C 
HETATM    6  C7  UNL     1     -34.212   7.080   2.661  1.00 20.00     0.045 C 
HETATM    7  C8  UNL     1     -32.475   5.709   3.464  1.00 20.00     0.026 C 
HETATM    8  C9  UNL     1     -33.697   6.481   3.981  1.00 20.00     0.106 C 
ENDROOT
BRANCH   8   9
HETATM    9  C5  UNL     1     -34.700   5.672   4.784  1.00 20.00     0.178 C 
HETATM   10  O10 UNL     1     -35.201   4.683   4.181  1.00 20.00    -0.648 OA
HETATM   11  O11 UNL     1     -34.904   6.095   5.957  1.00 20.00    -0.648 OA
ENDBRANCH   8   9
TORSDOF 1
