REMARK  3 active torsions:
REMARK  status: ('A' for Active; 'I' for Inactive)
REMARK    1  A    between atoms: C1_1  and  C2_2 
REMARK    2  A    between atoms: C4_4  and  C9_9 
REMARK    3  A    between atoms: C5_5  and  C9_9 
ROOT
HETATM    1  C2  UNL     1     -32.203   6.428   2.464  1.00 20.00    -0.004 C 
HETATM    2  C4  UNL     1     -33.282   6.064   3.174  1.00 20.00    -0.015 C 
ENDROOT
BRANCH   2   3
HETATM    3  C9  UNL     1     -33.234   5.079   4.312  1.00 20.00     0.073 C 
HETATM    4  C8  UNL     1     -34.136   3.880   4.046  1.00 20.00     0.022 C 
BRANCH   3   5
HETATM    5  C5  UNL     1     -33.667   5.778   5.600  1.00 20.00     0.130 C 
HETATM    6  C7  UNL     1     -33.392   7.258   5.688  1.00 20.00     0.091 C 
HETATM    7  O10 UNL     1     -34.179   5.176   6.544  1.00 20.00    -0.298 OA
ENDBRANCH   3   5
ENDBRANCH   2   3
BRANCH   1   8
HETATM    8  C1  UNL     1     -32.258   7.375   1.373  1.00 20.00    -0.005 C 
HETATM    9  C3  UNL     1     -33.010   8.485   1.403  1.00 20.00    -0.031 C 
HETATM   10  C6  UNL     1     -33.076   9.471   0.283  1.00 20.00     0.036 C 
ENDBRANCH   1   8
TORSDOF 3
