REMARK  1 active torsions:
REMARK  status: ('A' for Active; 'I' for Inactive)
REMARK    1  A    between atoms: C1_1  and  C5_5 
ROOT
HETATM    1  C1  UNL     1     -33.010   7.954   1.902  1.00 20.00    -0.068 C 
HETATM    2  C2  UNL     1     -33.015   8.777   1.028  1.00 20.00    -0.108 C 
HETATM    3  C6  UNL     1     -33.021   9.780  -0.037  1.00 20.00     0.112 C 
ENDROOT
BRANCH   1   4
HETATM    4  C5  UNL     1     -33.004   6.960   2.957  1.00 20.00     0.126 C 
HETATM    5  C3  UNL     1     -34.159   7.110   3.989  1.00 20.00     0.057 C 
HETATM    6  C4  UNL     1     -33.019   7.145   5.028  1.00 20.00     0.127 C 
HETATM    7  C7  UNL     1     -35.184   6.004   4.150  1.00 20.00     0.016 C 
HETATM    8  C8  UNL     1     -33.014   8.306   6.000  1.00 20.00     0.040 C 
HETATM    9  O10 UNL     1     -32.035   7.341   3.976  1.00 20.00    -0.362 OA
HETATM   10  C9  UNL     1     -32.675   5.572   2.422  1.00 20.00     0.061 C 
ENDBRANCH   1   4
TORSDOF 1
