REMARK  1 active torsions:
REMARK  status: ('A' for Active; 'I' for Inactive)
REMARK    1  A    between atoms: C9_9  and  O10_10 
ROOT
HETATM    1  C1  UNL     1     -32.975   7.570   0.922  1.00 20.00     0.012 C 
HETATM    2  C2  UNL     1     -32.933   7.007   1.981  1.00 20.00    -0.112 C 
HETATM    3  C3  UNL     1     -33.787   4.477   5.369  1.00 20.00     0.007 C 
HETATM    4  C4  UNL     1     -33.978   5.995   5.504  1.00 20.00     0.009 C 
HETATM    5  C5  UNL     1     -32.735   4.787   3.114  1.00 20.00     0.024 C 
HETATM    6  C6  UNL     1     -32.881   6.317   3.279  1.00 20.00     0.071 C 
HETATM    7  C7  UNL     1     -33.969   4.238   3.858  1.00 20.00     0.016 C 
HETATM    8  C8  UNL     1     -34.219   6.442   4.047  1.00 20.00     0.030 C 
HETATM    9  C9  UNL     1     -35.031   5.270   3.478  1.00 20.00     0.127 C 
ENDROOT
BRANCH   9  10
HETATM   10  O10 UNL     1     -36.263   5.062   4.137  1.00 20.00    -0.395 OA
HETATM   11  H22 UNL     1     -36.872   5.760   3.837  1.00 20.00     0.210 HD
ENDBRANCH   9  10
TORSDOF 1
