REMARK  1 active torsions:
REMARK  status: ('A' for Active; 'I' for Inactive)
REMARK    1  A    between atoms: C3_3  and  C8_8 
ROOT
HETATM    1  C1  UNL     1     -33.167   5.026   1.174  1.00 20.00    -0.025 C 
HETATM    2  C2  UNL     1     -34.049   4.291   1.866  1.00 20.00    -0.024 C 
HETATM    3  C4  UNL     1     -32.224   4.603   3.232  1.00 20.00     0.018 C 
HETATM    4  C5  UNL     1     -32.271   5.713   2.177  1.00 20.00     0.013 C 
HETATM    5  C6  UNL     1     -33.755   4.503   3.334  1.00 20.00     0.024 C 
HETATM    6  C7  UNL     1     -33.067   6.810   2.944  1.00 20.00     0.005 C 
HETATM    7  C8  UNL     1     -34.143   5.963   3.730  1.00 20.00     0.027 C 
HETATM    8  C10 UNL     1     -33.587   7.929   2.049  1.00 20.00     0.012 C 
HETATM    9  C11 UNL     1     -35.610   6.301   3.442  1.00 20.00     0.024 C 
ENDROOT
BRANCH   7  10
HETATM   10  C3  UNL     1     -33.954   6.113   5.223  1.00 20.00     0.132 C 
HETATM   11  C9  UNL     1     -34.763   5.199   6.102  1.00 20.00     0.091 C 
HETATM   12  O12 UNL     1     -33.174   6.939   5.694  1.00 20.00    -0.298 OA
ENDBRANCH   7  10
TORSDOF 1
