REMARK  1 active torsions:
REMARK  status: ('A' for Active; 'I' for Inactive)
REMARK    1  A    between atoms: C1_1  and  C8_8 
ROOT
HETATM    1  C2  UNL     1     -33.514   5.685   2.046  1.00 20.00     0.019 A 
HETATM    2  C3  UNL     1     -34.582   7.202   3.166  1.00 20.00     0.019 A 
HETATM    3  C4  UNL     1     -32.514   6.759   3.641  1.00 20.00     0.019 A 
HETATM    4  C5  UNL     1     -34.826   5.721   2.843  1.00 20.00     0.038 A 
HETATM    5  C6  UNL     1     -32.757   5.277   3.318  1.00 20.00     0.038 A 
HETATM    6  C7  UNL     1     -33.825   6.796   4.439  1.00 20.00     0.038 A 
HETATM    7  C8  UNL     1     -33.271   7.164   2.370  1.00 20.00     0.050 A 
HETATM    8  C9  UNL     1     -34.063   5.328   4.103  1.00 20.00     0.117 A 
HETATM    9  F11 UNL     1     -34.460   4.405   4.974  1.00 20.00    -0.242 F 
ENDROOT
BRANCH   7  10
HETATM   10  C1  UNL     1     -32.826   8.205   1.390  1.00 20.00     0.228 C 
HETATM   11  O10 UNL     1     -33.507   9.198   1.150  1.00 20.00    -0.279 OA
HETATM   12 CL12 UNL     1     -31.287   7.821   0.682  1.00 20.00    -0.043 Cl
ENDBRANCH   7  10
TORSDOF 1
