REMARK  1 active torsions:
REMARK  status: ('A' for Active; 'I' for Inactive)
REMARK    1  A    between atoms: C3_3  and  C7_7 
ROOT
HETATM    1  C1  UNL     1     -33.811   7.047   4.891  1.00 20.00    -0.007 C 
HETATM    2  C2  UNL     1     -34.157   5.766   4.708  1.00 20.00     0.008 C 
HETATM    3  C4  UNL     1     -33.339   7.930   3.773  1.00 20.00     0.042 C 
HETATM    4  C5  UNL     1     -34.079   5.065   3.384  1.00 20.00     0.051 C 
HETATM    5  C6  UNL     1     -33.250   5.839   2.355  1.00 20.00     0.019 C 
HETATM    6  C7  UNL     1     -33.585   7.332   2.381  1.00 20.00     0.076 C 
HETATM    7 CL9  UNL     1     -34.713   4.808   6.035  1.00 20.00    -0.089 Cl
ENDROOT
BRANCH   6   8
HETATM    8  C3  UNL     1     -32.772   8.065   1.356  1.00 20.00     0.223 C 
HETATM    9  O8  UNL     1     -31.646   7.692   1.038  1.00 20.00    -0.279 OA
HETATM   10 CL10 UNL     1     -33.613   9.446   0.720  1.00 20.00    -0.043 Cl
ENDBRANCH   6   8
TORSDOF 1
