REMARK  3 active torsions:
REMARK  status: ('A' for Active; 'I' for Inactive)
REMARK    1  A    between atoms: C3_3  and  C7_7 
REMARK    2  A    between atoms: C4_4  and  C6_6 
REMARK    3  A    between atoms: C4_4  and  O11_11 
ROOT
HETATM    1  C1  UNL     1     -33.087   8.587   1.308  1.00 20.00     0.074 C 
HETATM    2  C5  UNL     1     -32.650   6.134   0.983  1.00 20.00     0.046 A 
HETATM    3  C6  UNL     1     -33.784   6.260   1.957  1.00 20.00     0.114 A 
HETATM    4  C7  UNL     1     -32.697   7.333   1.915  1.00 20.00     0.079 A 
HETATM    5  N9  UNL     1     -33.399   9.593   0.820  1.00 20.00    -0.196 NA
ENDROOT
BRANCH   4   6
HETATM    6  C3  UNL     1     -31.699   7.332   2.997  1.00 20.00    -0.012 C 
HETATM    7  C2  UNL     1     -31.854   7.979   4.158  1.00 20.00     0.008 C 
ENDBRANCH   4   6
BRANCH   3   8
HETATM    8  C4  UNL     1     -33.879   5.311   3.077  1.00 20.00     0.264 C 
HETATM    9  O10 UNL     1     -33.347   4.209   3.088  1.00 20.00    -0.265 OA
BRANCH   8  10
HETATM   10  O11 UNL     1     -34.639   5.853   4.071  1.00 20.00    -0.326 OA
HETATM   11  C8  UNL     1     -34.814   5.030   5.228  1.00 20.00     0.213 C 
ENDBRANCH   8  10
ENDBRANCH   3   8
TORSDOF 3
