REMARK  1 active torsions:
REMARK  status: ('A' for Active; 'I' for Inactive)
REMARK    1  A    between atoms: C1_1  and  C7_7 
ROOT
HETATM    1  C2  UNL     1     -34.157   3.570   4.273  1.00 20.00     0.001 C 
HETATM    2  C3  UNL     1     -32.813   7.301   4.969  1.00 20.00     0.014 C 
HETATM    3  C4  UNL     1     -34.087   4.290   5.610  1.00 20.00     0.005 C 
HETATM    4  C5  UNL     1     -33.682   4.637   3.301  1.00 20.00     0.006 C 
HETATM    5  C6  UNL     1     -33.816   6.812   6.006  1.00 20.00     0.006 C 
HETATM    6  C7  UNL     1     -33.597   7.220   3.664  1.00 20.00     0.076 C 
HETATM    7  C8  UNL     1     -34.597   5.701   5.304  1.00 20.00    -0.010 C 
HETATM    8  C9  UNL     1     -34.383   5.912   3.785  1.00 20.00     0.002 C 
ENDROOT
BRANCH   6   9
HETATM    9  C1  UNL     1     -32.722   7.295   2.454  1.00 20.00     0.223 C 
HETATM   10  O10 UNL     1     -31.827   6.480   2.254  1.00 20.00    -0.279 OA
HETATM   11 CL11 UNL     1     -33.138   8.635   1.429  1.00 20.00    -0.043 Cl
ENDBRANCH   6   9
TORSDOF 1
