REMARK  1 active torsions:
REMARK  status: ('A' for Active; 'I' for Inactive)
REMARK    1  A    between atoms: C1_1  and  C2_2 
ROOT
HETATM    1  C2  UNL     1     -33.531   6.746   2.254  1.00 20.00     0.100 A 
HETATM    2  C3  UNL     1     -32.934   5.495   2.844  1.00 20.00     0.104 A 
HETATM    3  C4  UNL     1     -33.738   6.423   3.726  1.00 20.00    -0.017 A 
HETATM    4  C5  UNL     1     -35.135   6.047   4.157  1.00 20.00     0.017 C 
HETATM    5  C6  UNL     1     -32.976   7.192   4.777  1.00 20.00     0.017 C 
HETATM    6 CL9  UNL     1     -33.538   3.937   2.342  1.00 20.00    -0.123 Cl
ENDROOT
BRANCH   1   7
HETATM    7  C1  UNL     1     -32.643   7.841   1.843  1.00 20.00     0.225 C 
HETATM    8  O7  UNL     1     -31.625   8.117   2.472  1.00 20.00    -0.279 OA
HETATM    9 CL8  UNL     1     -33.214   8.644   0.412  1.00 20.00    -0.043 Cl
ENDBRANCH   1   7
TORSDOF 1
