REMARK  0 active torsions:
REMARK  status: ('A' for Active; 'I' for Inactive)
ROOT
HETATM    1  C1  UNL     1     -33.675   7.191   5.655  1.00 20.00     0.352 C 
HETATM    2  C2  UNL     1     -33.575   6.357   3.569  1.00 20.00     0.451 C 
HETATM    3  C3  UNL     1     -34.335   5.417   4.441  1.00 20.00     0.451 C 
HETATM    4  O4  UNL     1     -32.862   7.186   4.475  1.00 20.00    -0.294 OA
HETATM    5  O5  UNL     1     -34.704   6.195   5.569  1.00 20.00    -0.294 OA
HETATM    6  F6  UNL     1     -34.402   7.141   2.844  1.00 20.00    -0.166 F 
HETATM    7  F7  UNL     1     -32.729   5.733   2.730  1.00 20.00    -0.166 F 
HETATM    8  F8  UNL     1     -33.558   4.398   4.869  1.00 20.00    -0.166 F 
HETATM    9  F9  UNL     1     -35.424   4.904   3.841  1.00 20.00    -0.166 F 
ENDROOT
TORSDOF 0
