REMARK  1 active torsions:
REMARK  status: ('A' for Active; 'I' for Inactive)
REMARK    1  A    between atoms: C1_1  and  C3_3 
ROOT
HETATM    1  C2  UNL     1     -32.154   7.222   3.955  1.00 20.00     0.080 C 
HETATM    2  C3  UNL     1     -32.897   5.902   4.263  1.00 20.00     0.310 C 
HETATM    3  C4  UNL     1     -32.207   6.754   2.482  1.00 20.00     0.222 C 
HETATM    4  C5  UNL     1     -32.546   7.811   1.451  1.00 20.00     0.043 C 
HETATM    5  C6  UNL     1     -33.307   4.605   2.254  1.00 20.00     0.311 C 
HETATM    6  N7  UNL     1     -33.390   5.932   2.858  1.00 20.00     0.101 N 
ENDROOT
BRANCH   2   7
HETATM    7  C1  UNL     1     -34.069   5.929   5.247  1.00 20.00     0.252 C 
HETATM    8  O8  UNL     1     -34.294   6.906   5.956  1.00 20.00    -0.277 OA
HETATM    9 CL9  UNL     1     -34.984   4.452   5.215  1.00 20.00    -0.042 Cl
ENDBRANCH   2   7
TORSDOF 1
