REMARK  1 active torsions:
REMARK  status: ('A' for Active; 'I' for Inactive)
REMARK    1  A    between atoms: C3_3  and  C8_8 
ROOT
HETATM    1  C1  UNL     1     -34.637   4.879   4.370  1.00 20.00    -0.079 C 
HETATM    2  C2  UNL     1     -34.793   4.759   5.691  1.00 20.00    -0.028 C 
HETATM    3  C4  UNL     1     -35.151   6.006   3.511  1.00 20.00     0.039 C 
HETATM    4  C5  UNL     1     -32.614   4.514   3.016  1.00 20.00     0.023 C 
HETATM    5  C6  UNL     1     -34.808   4.058   2.193  1.00 20.00     0.014 C 
HETATM    6  C7  UNL     1     -33.953   3.891   3.452  1.00 20.00     0.015 C 
HETATM    7  C8  UNL     1     -33.056   5.651   2.072  1.00 20.00     0.077 C 
HETATM    8  C9  UNL     1     -34.601   5.577   2.132  1.00 20.00     0.003 C 
HETATM    9  C10 UNL     1     -35.489   5.766   6.546  1.00 20.00     0.036 C 
ENDROOT
BRANCH   7  10
HETATM   10  C3  UNL     1     -32.503   6.987   2.455  1.00 20.00     0.223 C 
HETATM   11  O11 UNL     1     -31.760   7.124   3.422  1.00 20.00    -0.279 OA
HETATM   12 CL12 UNL     1     -33.040   8.248   1.386  1.00 20.00    -0.043 Cl
ENDBRANCH   7  10
TORSDOF 1
