REMARK  2 active torsions:
REMARK  status: ('A' for Active; 'I' for Inactive)
REMARK    1  A    between atoms: C2_2  and  C5_5 
REMARK    2  A    between atoms: C4_4  and  C8_8 
ROOT
HETATM    1  C1  UNL     1     -32.924   4.798   2.664  1.00 20.00    -0.015 C 
HETATM    2  C2  UNL     1     -33.136   6.090   2.930  1.00 20.00    -0.009 C 
HETATM    3  C6  UNL     1     -33.906   3.936   3.385  1.00 20.00     0.028 C 
HETATM    4  C7  UNL     1     -34.969   4.942   3.844  1.00 20.00     0.017 C 
HETATM    5  C8  UNL     1     -34.284   6.319   3.859  1.00 20.00     0.044 C 
ENDROOT
BRANCH   2   6
HETATM    6  C5  UNL     1     -32.330   7.152   2.351  1.00 20.00     0.152 C 
HETATM    7  C9  UNL     1     -31.092   7.604   3.095  1.00 20.00     0.096 C 
HETATM    8  O10 UNL     1     -32.647   7.683   1.278  1.00 20.00    -0.293 OA
ENDBRANCH   2   6
BRANCH   5   9
HETATM    9  C4  UNL     1     -33.844   6.715   5.233  1.00 20.00    -0.027 C 
HETATM   10  C3  UNL     1     -33.516   5.845   6.194  1.00 20.00     0.007 C 
ENDBRANCH   5   9
TORSDOF 2
