REMARK  3 active torsions:
REMARK  status: ('A' for Active; 'I' for Inactive)
REMARK    1  A    between atoms: C1_1  and  C2_2 
REMARK    2  A    between atoms: C4_4  and  C8_8 
REMARK    3  A    between atoms: C8_8  and  N9_9 
ROOT
HETATM    1  C1  UNL     1     -33.028   7.559   1.739  1.00 20.00    -0.015 C 
HETATM    2  C3  UNL     1     -32.800   8.551   1.102  1.00 20.00    -0.097 C 
HETATM    3  C5  UNL     1     -32.522   9.759   0.327  1.00 20.00     0.113 C 
ENDROOT
BRANCH   1   4
HETATM    4  C2  UNL     1     -33.287   6.426   2.468  1.00 20.00    -0.013 C 
HETATM    5  C4  UNL     1     -33.515   5.434   3.105  1.00 20.00    -0.062 C 
BRANCH   5   6
HETATM    6  C8  UNL     1     -33.790   4.220   3.880  1.00 20.00     0.365 C 
BRANCH   6   7
HETATM    7  N9  UNL     1     -34.700   4.501   4.982  1.00 20.00     0.090 N 
HETATM    8  C6  UNL     1     -35.975   5.019   4.480  1.00 20.00     0.310 C 
HETATM    9  C7  UNL     1     -34.100   5.453   5.918  1.00 20.00     0.310 C 
ENDBRANCH   6   7
ENDBRANCH   5   6
ENDBRANCH   1   4
TORSDOF 3
