REMARK  1 active torsions:
REMARK  status: ('A' for Active; 'I' for Inactive)
REMARK    1  A    between atoms: C1_1  and  C4_4 
ROOT
HETATM    1  C2  UNL     1     -35.519   4.928   4.082  1.00 20.00     0.225 A 
HETATM    2  C3  UNL     1     -34.497   4.502   5.077  1.00 20.00     0.225 A 
HETATM    3  C4  UNL     1     -34.056   4.937   3.698  1.00 20.00     0.099 A 
HETATM    4  C5  UNL     1     -33.593   3.852   2.758  1.00 20.00     0.031 C 
HETATM    5  F7  UNL     1     -36.149   6.142   4.292  1.00 20.00    -0.245 F 
HETATM    6  F8  UNL     1     -34.250   5.350   6.142  1.00 20.00    -0.245 F 
ENDROOT
BRANCH   3   7
HETATM    7  C1  UNL     1     -33.392   6.257   3.581  1.00 20.00     0.233 C 
HETATM    8  O6  UNL     1     -33.320   7.029   4.533  1.00 20.00    -0.279 OA
HETATM    9 CL9  UNL     1     -32.763   6.534   1.986  1.00 20.00    -0.043 Cl
ENDBRANCH   3   7
TORSDOF 1
