REMARK  1 active torsions:
REMARK  status: ('A' for Active; 'I' for Inactive)
REMARK    1  A    between atoms: C3_3  and  C4_4 
ROOT
HETATM    1  C1  UNL     1     -33.687   6.971   5.010  1.00 20.00     0.142 A 
HETATM    2  C2  UNL     1     -34.629   4.932   4.533  1.00 20.00     0.087 A 
HETATM    3  C3  UNL     1     -33.914   5.985   4.008  1.00 20.00     0.052 A 
HETATM    4  N5  UNL     1     -34.177   6.729   6.224  1.00 20.00    -0.223 NA
HETATM    5  S7  UNL     1     -34.947   5.257   6.184  1.00 20.00    -0.000 SA
ENDROOT
BRANCH   3   6
HETATM    6  C4  UNL     1     -33.476   6.042   2.641  1.00 20.00     0.254 C 
HETATM    7  O6  UNL     1     -33.747   5.094   1.859  1.00 20.00    -0.274 OA
HETATM    8 CL8  UNL     1     -32.549   7.426   2.008  1.00 20.00    -0.038 Cl
ENDBRANCH   3   6
TORSDOF 1
