REMARK  1 active torsions:
REMARK  status: ('A' for Active; 'I' for Inactive)
REMARK    1  A    between atoms: C8_8  and  C9_9 
ROOT
HETATM    1  C1  UNL     1     -33.015   8.796   1.041  1.00 20.00     0.218 C 
HETATM    2  C8  UNL     1     -33.120   7.503   1.137  1.00 20.00     0.044 C 
HETATM    3  O10 UNL     1     -32.920   9.965   0.955  1.00 20.00    -0.284 OA
ENDROOT
BRANCH   2   4
HETATM    4  C9  UNL     1     -32.341   6.646   2.092  1.00 20.00     0.057 C 
HETATM    5  C6  UNL     1     -31.875   7.443   3.284  1.00 20.00    -0.014 C 
HETATM    6  C4  UNL     1     -32.403   7.532   4.512  1.00 20.00    -0.003 C 
HETATM    7  C2  UNL     1     -33.618   6.928   4.992  1.00 20.00    -0.000 C 
HETATM    8  C3  UNL     1     -34.234   5.839   4.517  1.00 20.00    -0.000 C 
HETATM    9  C5  UNL     1     -33.830   5.009   3.413  1.00 20.00    -0.003 C 
HETATM   10  C7  UNL     1     -33.058   5.351   2.373  1.00 20.00    -0.014 C 
ENDBRANCH   2   4
TORSDOF 1
