REMARK  0 active torsions:
REMARK  status: ('A' for Active; 'I' for Inactive)
ROOT
HETATM    1  C1  UNL     1     -35.038   5.242   5.718  1.00 20.00     0.148 A 
HETATM    2  C2  UNL     1     -33.873   7.057   5.569  1.00 20.00     0.218 A 
HETATM    3  C3  UNL     1     -34.460   5.232   4.483  1.00 20.00     0.061 A 
HETATM    4  C4  UNL     1     -34.283   4.567   3.263  1.00 20.00     0.037 A 
HETATM    5  C5  UNL     1     -33.470   5.287   2.464  1.00 20.00     0.077 A 
HETATM    6  C6  UNL     1     -33.084   6.512   3.209  1.00 20.00     0.253 A 
HETATM    7  N7  UNL     1     -34.664   6.394   6.396  1.00 20.00    -0.253 NA
HETATM    8  N8  UNL     1     -33.735   6.373   4.407  1.00 20.00    -0.272 N 
HETATM    9  O9  UNL     1     -32.380   7.454   2.924  1.00 20.00    -0.268 OA
ENDROOT
TORSDOF 0
