REMARK  2 active torsions:
REMARK  status: ('A' for Active; 'I' for Inactive)
REMARK    1  A    between atoms: C2_2  and  C7_7 
REMARK    2  A    between atoms: C6_6  and  C7_7 
ROOT
HETATM    1  C1  UNL     1     -32.304   7.423   1.558  1.00 20.00     0.064 C 
HETATM    2  C4  UNL     1     -32.077   8.232   3.870  1.00 20.00     0.026 C 
HETATM    3  C6  UNL     1     -32.940   7.431   2.892  1.00 20.00     0.099 C 
HETATM    4  N8  UNL     1     -31.806   7.417   0.509  1.00 20.00    -0.197 NA
ENDROOT
BRANCH   3   5
HETATM    5  C7  UNL     1     -33.239   5.987   3.360  1.00 20.00     0.068 C 
HETATM    6  C5  UNL     1     -33.730   5.056   2.247  1.00 20.00     0.019 C 
BRANCH   5   7
HETATM    7  C2  UNL     1     -34.236   5.994   4.521  1.00 20.00     0.128 C 
HETATM    8  C3  UNL     1     -33.844   6.770   5.753  1.00 20.00     0.091 C 
HETATM    9  O9  UNL     1     -35.303   5.380   4.478  1.00 20.00    -0.298 OA
ENDBRANCH   5   7
ENDBRANCH   3   5
TORSDOF 2
