REMARK  1 active torsions:
REMARK  status: ('A' for Active; 'I' for Inactive)
REMARK    1  A    between atoms: C9_9  and  C10_10 
ROOT
HETATM    1  C1  UNL     1     -35.174   4.993   5.721  1.00 20.00     0.001 A 
HETATM    2  C2  UNL     1     -34.553   6.088   6.476  1.00 20.00     0.001 A 
HETATM    3  C3  UNL     1     -34.849   4.732   4.438  1.00 20.00     0.012 A 
HETATM    4  C4  UNL     1     -33.622   6.898   5.931  1.00 20.00     0.012 A 
HETATM    5  C5  UNL     1     -33.350   5.538   2.568  1.00 20.00     0.001 A 
HETATM    6  C6  UNL     1     -32.354   7.296   3.780  1.00 20.00     0.001 A 
HETATM    7  C7  UNL     1     -33.857   5.571   3.808  1.00 20.00    -0.029 A 
HETATM    8  C8  UNL     1     -33.240   6.660   4.559  1.00 20.00    -0.029 A 
HETATM    9  C10 UNL     1     -32.334   6.642   2.422  1.00 20.00     0.094 A 
ENDROOT
BRANCH   9  10
HETATM   10  C9  UNL     1     -32.807   7.619   1.394  1.00 20.00     0.243 C 
HETATM   11  O11 UNL     1     -32.152   7.930   0.404  1.00 20.00    -0.306 OA
ENDBRANCH   9  10
TORSDOF 1
