REMARK  0 active torsions:
REMARK  status: ('A' for Active; 'I' for Inactive)
ROOT
HETATM    1  C1  UNL     1     -33.145   6.224   1.230  1.00 20.00     0.057 C 
HETATM    2  C2  UNL     1     -34.607   4.903   4.356  1.00 20.00    -0.019 C 
HETATM    3  C3  UNL     1     -33.876   5.554   3.441  1.00 20.00    -0.051 C 
HETATM    4  C4  UNL     1     -33.738   5.314   2.021  1.00 20.00    -0.052 C 
HETATM    5  C5  UNL     1     -32.690   7.541   1.764  1.00 20.00     0.150 C 
HETATM    6  C6  UNL     1     -34.451   5.509   5.714  1.00 20.00     0.028 C 
HETATM    7  C7  UNL     1     -33.064   7.907   3.187  1.00 20.00     0.092 C 
HETATM    8  C8  UNL     1     -33.805   6.862   5.406  1.00 20.00     0.013 C 
HETATM    9  C9  UNL     1     -33.088   6.667   4.068  1.00 20.00     0.026 C 
HETATM   10  C10 UNL     1     -34.251   4.018   1.462  1.00 20.00     0.049 C 
HETATM   11  O11 UNL     1     -32.092   8.324   1.030  1.00 20.00    -0.293 OA
ENDROOT
TORSDOF 0
