REMARK  1 active torsions:
REMARK  status: ('A' for Active; 'I' for Inactive)
REMARK    1  A    between atoms: C7_7  and  O11_11 
ROOT
HETATM    1  C1  UNL     1     -33.842   5.818   6.289  1.00 20.00    -0.029 C 
HETATM    2  C2  UNL     1     -33.856   4.177   3.523  1.00 20.00    -0.022 C 
HETATM    3  C3  UNL     1     -33.021   4.877   2.749  1.00 20.00     0.002 C 
HETATM    4  C4  UNL     1     -33.512   6.719   5.359  1.00 20.00    -0.018 C 
HETATM    5  C5  UNL     1     -34.821   4.814   5.776  1.00 20.00     0.036 C 
HETATM    6  C6  UNL     1     -34.825   5.062   4.261  1.00 20.00     0.026 C 
HETATM    7  C7  UNL     1     -33.310   6.342   2.809  1.00 20.00     0.155 C 
HETATM    8  C8  UNL     1     -34.226   6.481   4.048  1.00 20.00     0.010 C 
HETATM    9  C9  UNL     1     -35.296   7.554   3.843  1.00 20.00     0.023 C 
ENDROOT
BRANCH   7  10
HETATM   10  O11 UNL     1     -32.124   7.108   2.935  1.00 20.00    -0.386 OA
HETATM   11  C10 UNL     1     -31.468   7.272   1.683  1.00 20.00     0.202 C 
ENDBRANCH   7  10
TORSDOF 1
