REMARK  3 active torsions:
REMARK  status: ('A' for Active; 'I' for Inactive)
REMARK    1  A    between atoms: C2_2  and  C6_6 
REMARK    2  A    between atoms: C3_3  and  C7_7 
REMARK    3  A    between atoms: C6_6  and  C7_7 
ROOT
HETATM    1  C7  UNL     1     -33.215   6.212   3.312  1.00 20.00     0.242 C 
HETATM    2  F9  UNL     1     -33.804   5.332   2.451  1.00 20.00    -0.241 F 
ENDROOT
BRANCH   1   3
HETATM    3  C3  UNL     1     -33.931   6.206   4.649  1.00 20.00     0.157 C 
HETATM    4  C5  UNL     1     -33.351   7.050   5.754  1.00 20.00     0.094 C 
HETATM    5  O8  UNL     1     -34.946   5.533   4.828  1.00 20.00    -0.295 OA
ENDBRANCH   1   3
BRANCH   1   6
HETATM    6  C6  UNL     1     -33.169   7.584   2.644  1.00 20.00     0.072 C 
BRANCH   6   7
HETATM    7  C2  UNL     1     -32.468   7.560   1.314  1.00 20.00    -0.028 C 
HETATM    8  C1  UNL     1     -32.773   8.376   0.294  1.00 20.00    -0.035 C 
HETATM    9  C4  UNL     1     -33.847   9.411   0.352  1.00 20.00     0.036 C 
ENDBRANCH   6   7
ENDBRANCH   1   6
TORSDOF 3
