REMARK  1 active torsions:
REMARK  status: ('A' for Active; 'I' for Inactive)
REMARK    1  A    between atoms: C8_8  and  C9_9 
ROOT
HETATM    1  C1  UNL     1     -33.310   6.871   5.659  1.00 20.00     0.008 A 
HETATM    2  C2  UNL     1     -32.810   7.462   3.254  1.00 20.00     0.026 A 
HETATM    3  C3  UNL     1     -33.537   5.560   2.173  1.00 20.00     0.026 A 
HETATM    4  C4  UNL     1     -33.821   5.885   6.417  1.00 20.00    -0.022 A 
HETATM    5  C5  UNL     1     -34.241   4.454   4.337  1.00 20.00    -0.011 A 
HETATM    6  C6  UNL     1     -33.258   6.666   4.240  1.00 20.00    -0.026 A 
HETATM    7  C7  UNL     1     -33.730   5.447   3.597  1.00 20.00    -0.029 A 
HETATM    8  C8  UNL     1     -32.986   6.771   1.985  1.00 20.00     0.003 A 
HETATM    9  C10 UNL     1     -34.340   4.574   5.846  1.00 20.00     0.055 A 
ENDROOT
BRANCH   8  10
HETATM   10  C9  UNL     1     -32.620   7.308   0.685  1.00 20.00     0.269 C 
HETATM   11  O11 UNL     1     -32.116   8.422   0.537  1.00 20.00    -0.301 OA
ENDBRANCH   8  10
TORSDOF 1
