REMARK  1 active torsions:
REMARK  status: ('A' for Active; 'I' for Inactive)
REMARK    1  A    between atoms: C1_1  and  C5_5 
ROOT
HETATM    1  C2  UNL     1     -33.773   4.814   3.365  1.00 20.00     0.015 C 
HETATM    2  C3  UNL     1     -33.077   5.471   2.174  1.00 20.00     0.026 C 
HETATM    3  C4  UNL     1     -34.230   7.226   3.303  1.00 20.00     0.038 C 
HETATM    4  C5  UNL     1     -34.606   5.922   4.022  1.00 20.00     0.074 C 
HETATM    5  C6  UNL     1     -32.906   6.934   2.586  1.00 20.00     0.034 C 
HETATM    6  C7  UNL     1     -32.657   7.857   1.401  1.00 20.00     0.032 C 
HETATM    7 CL10 UNL     1     -31.533   7.093   3.737  1.00 20.00    -0.120 Cl
ENDROOT
BRANCH   4   8
HETATM    8  C1  UNL     1     -34.341   6.006   5.495  1.00 20.00     0.223 C 
HETATM    9  O8  UNL     1     -34.039   5.015   6.154  1.00 20.00    -0.279 OA
HETATM   10 CL9  UNL     1     -34.516   7.626   6.100  1.00 20.00    -0.043 Cl
ENDBRANCH   4   8
TORSDOF 1
