REMARK  0 active torsions:
REMARK  status: ('A' for Active; 'I' for Inactive)
ROOT
HETATM    1  C1  UNL     1     -34.090   4.975   2.829  1.00 20.00     0.041 A 
HETATM    2  C2  UNL     1     -34.143   5.266   4.225  1.00 20.00    -0.008 A 
HETATM    3  C3  UNL     1     -33.405   6.043   2.349  1.00 20.00     0.041 A 
HETATM    4  C4  UNL     1     -33.504   6.459   4.484  1.00 20.00     0.064 A 
HETATM    5  C5  UNL     1     -32.765   6.906   1.402  1.00 20.00     0.047 A 
HETATM    6  C6  UNL     1     -33.559   6.742   5.861  1.00 20.00     0.141 A 
HETATM    7  C7  UNL     1     -32.457   7.734   2.443  1.00 20.00     0.100 A 
HETATM    8  C8  UNL     1     -34.642   4.745   5.508  1.00 20.00     0.189 A 
HETATM    9  N9  UNL     1     -34.195   5.809   6.521  1.00 20.00    -0.295 NA
HETATM   10  N10 UNL     1     -33.073   6.892   3.312  1.00 20.00    -0.320 N 
ENDROOT
TORSDOF 0
