REMARK  1 active torsions:
REMARK  status: ('A' for Active; 'I' for Inactive)
REMARK    1  A    between atoms: C3_3  and  C6_6 
ROOT
HETATM    1  C1  UNL     1     -33.979   7.166   6.144  1.00 20.00    -0.029 C 
HETATM    2  C2  UNL     1     -34.851   6.154   6.185  1.00 20.00    -0.021 C 
HETATM    3  C4  UNL     1     -33.222   7.192   4.857  1.00 20.00     0.046 C 
HETATM    4  C5  UNL     1     -34.804   5.312   4.930  1.00 20.00    -0.015 C 
HETATM    5  C6  UNL     1     -34.088   6.298   3.937  1.00 20.00     0.046 C 
HETATM    6  C7  UNL     1     -36.215   4.892   4.499  1.00 20.00     0.020 C 
HETATM    7  C8  UNL     1     -33.984   4.043   5.239  1.00 20.00     0.020 C 
HETATM    8  C9  UNL     1     -35.051   7.191   3.128  1.00 20.00     0.026 C 
ENDROOT
BRANCH   5   9
HETATM    9  C3  UNL     1     -33.227   5.572   2.935  1.00 20.00     0.228 C 
HETATM   10  O10 UNL     1     -33.188   4.346   2.886  1.00 20.00    -0.279 OA
HETATM   11 CL11 UNL     1     -32.343   6.668   1.917  1.00 20.00    -0.043 Cl
ENDBRANCH   5   9
TORSDOF 1
