REMARK  1 active torsions:
REMARK  status: ('A' for Active; 'I' for Inactive)
REMARK    1  A    between atoms: C3_3  and  C6_6 
ROOT
HETATM    1  C1  UNL     1     -32.458   7.410   1.543  1.00 20.00    -0.154 C 
HETATM    2  C5  UNL     1     -32.454   7.473   0.245  1.00 20.00     0.096 C 
HETATM    3  C6  UNL     1     -32.458   7.351   2.841  1.00 20.00     0.061 C 
ENDROOT
BRANCH   3   4
HETATM    4  C3  UNL     1     -33.299   6.443   3.562  1.00 20.00    -0.010 A 
HETATM    5  C2  UNL     1     -33.581   5.177   3.246  1.00 20.00     0.023 A 
HETATM    6  C4  UNL     1     -34.522   4.695   4.269  1.00 20.00     0.290 A 
HETATM    7  C8  UNL     1     -33.138   4.312   2.126  1.00 20.00     0.055 C 
HETATM    8  O10 UNL     1     -35.003   3.576   4.318  1.00 20.00    -0.260 OA
HETATM    9  O11 UNL     1     -34.779   5.704   5.151  1.00 20.00    -0.308 OA
HETATM   10  C7  UNL     1     -34.013   6.864   4.795  1.00 20.00     0.162 A 
HETATM   11  C9  UNL     1     -33.101   7.211   5.964  1.00 20.00     0.045 C 
ENDBRANCH   3   4
TORSDOF 1
