REMARK  2 active torsions:
REMARK  status: ('A' for Active; 'I' for Inactive)
REMARK    1  A    between atoms: C3_3  and  C5_5 
REMARK    2  A    between atoms: C4_4  and  C9_9 
ROOT
HETATM    1  C1  UNL     1     -33.115   4.986   1.846  1.00 20.00     0.005 C 
HETATM    2  C2  UNL     1     -33.700   3.921   2.379  1.00 20.00     0.132 C 
HETATM    3  C4  UNL     1     -32.636   5.860   2.947  1.00 20.00     0.050 C 
HETATM    4  C5  UNL     1     -33.275   5.171   4.165  1.00 20.00     0.204 C 
HETATM    5  O11 UNL     1     -33.760   3.875   3.755  1.00 20.00    -0.350 OA
ENDROOT
BRANCH   3   6
HETATM    6  C9  UNL     1     -32.980   7.331   2.755  1.00 20.00    -0.012 C 
HETATM    7  C7  UNL     1     -32.098   8.214   3.638  1.00 20.00     0.010 C 
HETATM    8  C8  UNL     1     -32.839   7.733   1.287  1.00 20.00     0.010 C 
ENDBRANCH   3   6
BRANCH   4   9
HETATM    9  C3  UNL     1     -34.470   5.867   4.747  1.00 20.00     0.152 C 
HETATM   10  C6  UNL     1     -35.802   5.566   4.116  1.00 20.00     0.093 C 
HETATM   11  O10 UNL     1     -34.365   6.645   5.694  1.00 20.00    -0.296 OA
ENDBRANCH   4   9
TORSDOF 2
