REMARK  1 active torsions:
REMARK  status: ('A' for Active; 'I' for Inactive)
REMARK    1  A    between atoms: C1_1  and  N7_7 
ROOT
HETATM    1  C2  UNL     1     -33.864   6.911   4.615  1.00 20.00     0.159 C 
HETATM    2  C3  UNL     1     -34.055   5.483   5.086  1.00 20.00     0.138 C 
HETATM    3  C4  UNL     1     -33.808   5.398   2.789  1.00 20.00     0.221 C 
HETATM    4  C5  UNL     1     -35.111   5.333   6.163  1.00 20.00     0.041 C 
HETATM    5  C6  UNL     1     -32.567   4.602   2.413  1.00 20.00     0.063 C 
HETATM    6  N7  UNL     1     -33.500   6.740   3.233  1.00 20.00    -0.330 N 
HETATM    7  O9  UNL     1     -34.463   4.765   3.903  1.00 20.00    -0.360 OA
ENDROOT
BRANCH   6   8
HETATM    8  C1  UNL     1     -33.067   7.761   2.421  1.00 20.00     0.352 C 
HETATM    9  O8  UNL     1     -32.743   7.682   1.242  1.00 20.00    -0.283 OA
ENDBRANCH   6   8
TORSDOF 1
