REMARK  1 active torsions:
REMARK  status: ('A' for Active; 'I' for Inactive)
REMARK    1  A    between atoms: C3_3  and  C4_4 
ROOT
HETATM    1  C1  UNL     1     -33.613   4.930   3.127  1.00 20.00     0.012 A 
HETATM    2  C2  UNL     1     -32.516   5.278   2.456  1.00 20.00     0.003 A 
HETATM    3  C4  UNL     1     -34.262   6.140   3.682  1.00 20.00     0.231 A 
HETATM    4  C5  UNL     1     -32.335   6.753   2.516  1.00 20.00     0.141 A 
HETATM    5  C6  UNL     1     -32.317   7.406   1.144  1.00 20.00     0.044 C 
HETATM    6  O8  UNL     1     -33.471   7.255   3.255  1.00 20.00    -0.364 OA
ENDROOT
BRANCH   3   7
HETATM    7  C3  UNL     1     -34.214   6.088   5.174  1.00 20.00     0.251 C 
HETATM    8  O7  UNL     1     -34.081   7.104   5.851  1.00 20.00    -0.277 OA
HETATM    9 CL9  UNL     1     -34.367   4.466   5.778  1.00 20.00    -0.041 Cl
ENDBRANCH   3   7
TORSDOF 1
