REMARK  1 active torsions:
REMARK  status: ('A' for Active; 'I' for Inactive)
REMARK    1  A    between atoms: C3_3  and  C9_9 
ROOT
HETATM    1  C1  UNL     1     -34.071   5.619   6.234  1.00 20.00    -0.030 C 
HETATM    2  C2  UNL     1     -35.215   5.209   5.648  1.00 20.00    -0.029 C 
HETATM    3  C4  UNL     1     -32.987   6.402   5.520  1.00 20.00     0.032 C 
HETATM    4  C5  UNL     1     -35.552   5.436   4.184  1.00 20.00     0.044 C 
HETATM    5  C6  UNL     1     -32.894   7.291   2.895  1.00 20.00     0.007 C 
HETATM    6  C7  UNL     1     -34.163   6.696   2.201  1.00 20.00     0.018 C 
HETATM    7  C8  UNL     1     -33.588   6.906   4.222  1.00 20.00     0.005 C 
HETATM    8  C9  UNL     1     -34.248   5.724   3.430  1.00 20.00     0.027 C 
ENDROOT
BRANCH   8   9
HETATM    9  C3  UNL     1     -33.432   4.397   3.201  1.00 20.00     0.132 C 
HETATM   10  C10 UNL     1     -34.109   3.315   2.404  1.00 20.00     0.091 C 
HETATM   11  O11 UNL     1     -32.296   4.253   3.650  1.00 20.00    -0.298 OA
ENDBRANCH   8   9
TORSDOF 1
