REMARK  1 active torsions:
REMARK  status: ('A' for Active; 'I' for Inactive)
REMARK    1  A    between atoms: C1_1  and  C3_3 
ROOT
HETATM    1  C1  UNL     1     -34.424   4.918   4.510  1.00 20.00    -0.007 C 
HETATM    2  C2  UNL     1     -34.080   3.819   3.823  1.00 20.00    -0.016 C 
HETATM    3  C4  UNL     1     -34.095   6.229   3.860  1.00 20.00     0.058 C 
HETATM    4  C5  UNL     1     -33.863   5.951   2.371  1.00 20.00     0.052 C 
HETATM    5  C6  UNL     1     -34.247   2.382   4.194  1.00 20.00     0.056 C 
HETATM    6  C7  UNL     1     -32.841   6.883   1.744  1.00 20.00     0.022 C 
HETATM    7  S9  UNL     1     -33.323   4.206   2.293  1.00 20.00    -0.129 SA
ENDROOT
BRANCH   1   8
HETATM    8  C3  UNL     1     -35.070   4.916   5.820  1.00 20.00     0.266 C 
HETATM    9  O8  UNL     1     -35.367   5.947   6.415  1.00 20.00    -0.302 OA
ENDBRANCH   1   8
TORSDOF 1
