REMARK  0 active torsions:
REMARK  status: ('A' for Active; 'I' for Inactive)
ROOT
HETATM    1  C1  UNL     1     -33.948   3.908   5.253  1.00 20.00    -0.013 C 
HETATM    2  C2  UNL     1     -34.406   4.865   6.089  1.00 20.00     0.004 C 
HETATM    3  C3  UNL     1     -33.595   6.484   3.805  1.00 20.00     0.341 C 
HETATM    4  C4  UNL     1     -33.999   4.098   3.740  1.00 20.00     0.127 C 
HETATM    5  C5  UNL     1     -35.707   5.780   4.201  1.00 20.00     0.137 C 
HETATM    6  C6  UNL     1     -35.036   6.126   5.511  1.00 20.00     0.169 C 
HETATM    7  N7  UNL     1     -34.501   5.452   3.479  1.00 20.00    -0.222 NA
HETATM    8  O8  UNL     1     -32.583   6.813   3.205  1.00 20.00    -0.245 OA
HETATM    9  O9  UNL     1     -33.980   7.001   5.035  1.00 20.00    -0.298 OA
ENDROOT
TORSDOF 0
