REMARK  2 active torsions:
REMARK  status: ('A' for Active; 'I' for Inactive)
REMARK    1  A    between atoms: C3_3  and  C6_6 
REMARK    2  A    between atoms: C3_3  and  O10_10 
ROOT
HETATM    1  C1  UNL     1     -34.970   5.745   4.912  1.00 20.00    -0.002 C 
HETATM    2  C2  UNL     1     -34.806   4.457   4.588  1.00 20.00     0.130 C 
HETATM    3  C4  UNL     1     -34.236   6.834   4.198  1.00 20.00     0.046 C 
HETATM    4  C5  UNL     1     -33.571   4.979   2.650  1.00 20.00     0.189 C 
HETATM    5  C6  UNL     1     -33.102   6.253   3.350  1.00 20.00     0.113 C 
HETATM    6  O9  UNL     1     -34.020   3.977   3.573  1.00 20.00    -0.362 OA
ENDROOT
BRANCH   5   7
HETATM    7  C3  UNL     1     -32.637   7.251   2.337  1.00 20.00     0.265 C 
HETATM    8  O8  UNL     1     -31.498   7.695   2.286  1.00 20.00    -0.265 OA
BRANCH   7   9
HETATM    9  O10 UNL     1     -33.669   7.572   1.506  1.00 20.00    -0.326 OA
HETATM   10  C7  UNL     1     -33.361   8.523   0.482  1.00 20.00     0.213 C 
ENDBRANCH   7   9
ENDBRANCH   5   7
TORSDOF 2
