REMARK  0 active torsions:
REMARK  status: ('A' for Active; 'I' for Inactive)
ROOT
HETATM    1  C1  UNL     1     -33.486   6.578   5.631  1.00 20.00     0.459 C 
HETATM    2  C2  UNL     1     -33.533   6.799   3.368  1.00 20.00     0.090 C 
HETATM    3  C3  UNL     1     -33.975   5.375   3.764  1.00 20.00     0.090 C 
HETATM    4  C4  UNL     1     -34.375   7.456   2.276  1.00 20.00     0.049 C 
HETATM    5  C5  UNL     1     -32.046   6.913   2.991  1.00 20.00     0.049 C 
HETATM    6  C6  UNL     1     -35.500   5.191   3.851  1.00 20.00     0.049 C 
HETATM    7  C7  UNL     1     -33.389   4.255   2.905  1.00 20.00     0.049 C 
HETATM    8  O8  UNL     1     -33.712   7.533   4.594  1.00 20.00    -0.322 OA
HETATM    9  O9  UNL     1     -33.452   5.252   5.100  1.00 20.00    -0.322 OA
HETATM   10  F10 UNL     1     -34.527   6.654   6.500  1.00 20.00    -0.189 F 
ENDROOT
TORSDOF 0
