REMARK  1 active torsions:
REMARK  status: ('A' for Active; 'I' for Inactive)
REMARK    1  A    between atoms: C2_2  and  C3_3 
ROOT
HETATM    1  C1  UNL     1     -33.113   7.071   4.613  1.00 20.00    -0.015 C 
HETATM    2  C2  UNL     1     -33.481   6.144   3.724  1.00 20.00    -0.012 C 
HETATM    3  C4  UNL     1     -34.062   7.113   5.767  1.00 20.00     0.032 C 
HETATM    4  C5  UNL     1     -34.729   5.420   4.128  1.00 20.00     0.022 C 
HETATM    5  C6  UNL     1     -34.825   5.779   5.637  1.00 20.00    -0.007 C 
HETATM    6  C8  UNL     1     -34.743   3.929   3.814  1.00 20.00     0.015 C 
HETATM    7  C9  UNL     1     -34.229   4.732   6.586  1.00 20.00     0.011 C 
ENDROOT
BRANCH   2   8
HETATM    8  C3  UNL     1     -32.750   5.943   2.483  1.00 20.00     0.151 C 
HETATM    9  C7  UNL     1     -32.049   7.130   1.860  1.00 20.00     0.096 C 
HETATM   10  O10 UNL     1     -32.706   4.831   1.940  1.00 20.00    -0.293 OA
ENDBRANCH   2   8
TORSDOF 1
