REMARK  3 active torsions:
REMARK  status: ('A' for Active; 'I' for Inactive)
REMARK    1  A    between atoms: C1_1  and  C6_6 
REMARK    2  A    between atoms: C7_7  and  C8_8 
REMARK    3  A    between atoms: C8_8  and  O10_10 
ROOT
HETATM    1  C2  UNL     1     -33.631   4.119   2.684  1.00 20.00     0.001 C 
HETATM    2  C3  UNL     1     -34.065   4.506   4.095  1.00 20.00     0.011 C 
HETATM    3  C4  UNL     1     -32.700   5.164   2.075  1.00 20.00     0.007 C 
HETATM    4  C5  UNL     1     -33.757   6.947   3.522  1.00 20.00     0.018 C 
HETATM    5  C6  UNL     1     -34.689   5.896   4.116  1.00 20.00     0.047 C 
HETATM    6  C7  UNL     1     -33.326   6.566   2.098  1.00 20.00     0.010 C 
ENDROOT
BRANCH   6   7
HETATM    7  C8  UNL     1     -32.354   7.600   1.533  1.00 20.00     0.168 C 
BRANCH   7   8
HETATM    8  O10 UNL     1     -33.094   8.739   1.133  1.00 20.00    -0.400 OA
HETATM    9  H24 UNL     1     -32.457   9.383   0.777  1.00 20.00     0.209 HD
ENDBRANCH   7   8
ENDBRANCH   6   7
BRANCH   5  10
HETATM   10  C1  UNL     1     -34.935   6.266   5.567  1.00 20.00     0.235 C 
HETATM   11  O9  UNL     1     -34.042   6.350   6.404  1.00 20.00    -0.306 OA
ENDBRANCH   5  10
TORSDOF 3
