REMARK  3 active torsions:
REMARK  status: ('A' for Active; 'I' for Inactive)
REMARK    1  A    between atoms: C1_1  and  C2_2 
REMARK    2  A    between atoms: C1_1  and  O10_10 
REMARK    3  A    between atoms: C7_7  and  O10_10 
ROOT
HETATM    1  C1  UNL     1     -33.583   5.585   2.996  1.00 20.00     0.291 C 
HETATM    2  O8  UNL     1     -32.767   4.753   2.621  1.00 20.00    -0.262 OA
ENDROOT
BRANCH   1   3
HETATM    3  C2  UNL     1     -34.726   5.280   3.856  1.00 20.00     0.250 A 
HETATM    4  C3  UNL     1     -34.852   5.856   5.243  1.00 20.00     0.157 A 
HETATM    5  C4  UNL     1     -33.848   6.785   5.825  1.00 20.00     0.042 C 
HETATM    6  O9  UNL     1     -34.377   4.524   5.028  1.00 20.00    -0.365 OA
ENDBRANCH   1   3
BRANCH   1   7
HETATM    7  O10 UNL     1     -33.582   6.914   2.694  1.00 20.00    -0.315 OA
BRANCH   7   8
HETATM    8  C7  UNL     1     -32.509   7.352   1.853  1.00 20.00     0.123 C 
HETATM    9  C5  UNL     1     -32.988   8.515   0.997  1.00 20.00     0.040 C 
HETATM   10  C6  UNL     1     -31.320   7.739   2.720  1.00 20.00     0.040 C 
ENDBRANCH   7   8
ENDBRANCH   1   7
TORSDOF 3
