REMARK  2 active torsions:
REMARK  status: ('A' for Active; 'I' for Inactive)
REMARK    1  A    between atoms: C3_3  and  C4_4 
REMARK    2  A    between atoms: C5_5  and  C7_7 
ROOT
HETATM    1  C1  UNL     1     -34.507   7.202   4.911  1.00 20.00    -0.007 C 
HETATM    2  C2  UNL     1     -34.471   6.679   6.141  1.00 20.00     0.042 C 
HETATM    3  C4  UNL     1     -34.452   6.209   3.787  1.00 20.00     0.084 C 
HETATM    4  C5  UNL     1     -34.817   4.839   4.385  1.00 20.00     0.065 C 
HETATM    5  S9  UNL     1     -34.384   4.950   6.167  1.00 20.00    -0.136 SA
ENDROOT
BRANCH   3   6
HETATM    6  C3  UNL     1     -33.067   6.303   3.219  1.00 20.00     0.240 C 
HETATM    7  O8  UNL     1     -32.833   6.629   2.060  1.00 20.00    -0.306 OA
ENDBRANCH   3   6
BRANCH   4   8
HETATM    8  C7  UNL     1     -34.183   3.626   3.722  1.00 20.00     0.012 C 
HETATM    9  C6  UNL     1     -34.560   2.352   4.410  1.00 20.00     0.006 C 
ENDBRANCH   4   8
TORSDOF 2
