REMARK  2 active torsions:
REMARK  status: ('A' for Active; 'I' for Inactive)
REMARK    1  A    between atoms: C1_1  and  N9_9 
REMARK    2  A    between atoms: C4_4  and  C8_8 
ROOT
HETATM    1  C2  UNL     1     -33.546   8.010   3.184  1.00 20.00     0.031 C 
HETATM    2  C3  UNL     1     -32.581   5.935   2.483  1.00 20.00     0.130 C 
HETATM    3  C4  UNL     1     -32.229   7.407   2.680  1.00 20.00     0.005 C 
HETATM    4  C5  UNL     1     -34.135   6.904   4.065  1.00 20.00     0.083 C 
HETATM    5  C6  UNL     1     -33.702   7.032   5.523  1.00 20.00     0.032 C 
HETATM    6  N9  UNL     1     -33.621   5.675   3.464  1.00 20.00    -0.355 N 
ENDROOT
BRANCH   3   7
HETATM    7  C8  UNL     1     -31.711   8.075   1.418  1.00 20.00     0.002 C 
HETATM    8  C7  UNL     1     -32.699   7.996   0.296  1.00 20.00     0.005 C 
ENDBRANCH   3   7
BRANCH   6   9
HETATM    9  C1  UNL     1     -34.120   4.419   3.721  1.00 20.00     0.351 C 
HETATM   10  O10 UNL     1     -34.993   4.123   4.529  1.00 20.00    -0.284 OA
ENDBRANCH   6   9
TORSDOF 2
