REMARK  2 active torsions:
REMARK  status: ('A' for Active; 'I' for Inactive)
REMARK    1  A    between atoms: C3_3  and  C4_4 
REMARK    2  A    between atoms: C3_3  and  O10_10 
ROOT
HETATM    1  C1  UNL     1     -33.589   6.651   2.504  1.00 20.00    -0.065 A 
HETATM    2  C2  UNL     1     -33.738   7.094   1.275  1.00 20.00    -0.027 C 
HETATM    3  C4  UNL     1     -34.143   5.878   3.549  1.00 20.00     0.122 A 
HETATM    4  C5  UNL     1     -32.770   6.638   3.651  1.00 20.00     0.029 A 
HETATM    5  C6  UNL     1     -32.753   7.976   0.557  1.00 20.00     0.036 C 
HETATM    6  C7  UNL     1     -32.642   7.836   4.523  1.00 20.00     0.016 C 
ENDROOT
BRANCH   3   7
HETATM    7  C3  UNL     1     -34.140   4.430   3.339  1.00 20.00     0.267 C 
HETATM    8  O9  UNL     1     -34.095   3.898   2.238  1.00 20.00    -0.265 OA
BRANCH   7   9
HETATM    9  O10 UNL     1     -34.193   3.794   4.543  1.00 20.00    -0.326 OA
HETATM   10  C8  UNL     1     -34.197   2.364   4.484  1.00 20.00     0.213 C 
ENDBRANCH   7   9
ENDBRANCH   3   7
TORSDOF 2
