REMARK  1 active torsions:
REMARK  status: ('A' for Active; 'I' for Inactive)
REMARK    1  A    between atoms: C3_3  and  C4_4 
ROOT
HETATM    1  C1  UNL     1     -32.786   5.157   2.153  1.00 20.00     0.061 C 
HETATM    2  C2  UNL     1     -33.465   4.324   2.944  1.00 20.00     0.087 C 
HETATM    3  C4  UNL     1     -32.950   6.561   2.626  1.00 20.00     0.376 C 
HETATM    4  C5  UNL     1     -34.143   5.089   4.026  1.00 20.00     0.463 C 
HETATM    5  C6  UNL     1     -33.812   7.405   4.773  1.00 20.00     0.324 C 
HETATM    6  N7  UNL     1     -34.011   6.507   3.648  1.00 20.00     0.211 N 
HETATM    7  F9  UNL     1     -31.780   7.034   3.134  1.00 20.00    -0.195 F 
HETATM    8  F10 UNL     1     -35.456   4.763   4.130  1.00 20.00    -0.169 F 
HETATM    9  F11 UNL     1     -33.570   4.828   5.230  1.00 20.00    -0.169 F 
ENDROOT
BRANCH   3  10
HETATM   10  C3  UNL     1     -33.439   7.402   1.495  1.00 20.00     0.312 C 
HETATM   11  O8  UNL     1     -32.826   8.370   1.056  1.00 20.00    -0.301 OA
ENDBRANCH   3  10
TORSDOF 1
