REMARK  3 active torsions:
REMARK  status: ('A' for Active; 'I' for Inactive)
REMARK    1  A    between atoms: C7_7  and  C8_8 
REMARK    2  A    between atoms: C8_8  and  C9_9 
REMARK    3  A    between atoms: C9_9  and  N10_10 
ROOT
HETATM    1  C1  UNL     1     -33.424   9.541   0.799  1.00 20.00     0.012 C 
HETATM    2  C3  UNL     1     -32.888   8.530   1.162  1.00 20.00    -0.117 C 
HETATM    3  C7  UNL     1     -32.232   7.290   1.601  1.00 20.00     0.096 C 
ENDROOT
BRANCH   3   4
HETATM    4  C8  UNL     1     -32.276   7.115   3.125  1.00 20.00     0.061 C 
BRANCH   4   5
HETATM    5  C9  UNL     1     -33.694   6.991   3.715  1.00 20.00     0.300 C 
HETATM    6  C4  UNL     1     -33.658   6.775   5.172  1.00 20.00    -0.081 C 
HETATM    7  C2  UNL     1     -33.630   6.604   6.360  1.00 20.00     0.014 C 
BRANCH   5   8
HETATM    8  N10 UNL     1     -34.377   5.865   3.074  1.00 20.00     0.095 N 
HETATM    9  C5  UNL     1     -35.826   6.017   3.189  1.00 20.00     0.310 C 
HETATM   10  C6  UNL     1     -33.944   4.602   3.669  1.00 20.00     0.310 C 
ENDBRANCH   5   8
ENDBRANCH   4   5
ENDBRANCH   3   4
TORSDOF 3
