REMARK  3 active torsions:
REMARK  status: ('A' for Active; 'I' for Inactive)
REMARK    1  A    between atoms: C2_2  and  C5_5 
REMARK    2  A    between atoms: C3_3  and  C6_6 
REMARK    3  A    between atoms: C3_3  and  O10_10 
ROOT
HETATM    1  C4  UNL     1     -33.184   4.873   2.516  1.00 20.00     0.025 A 
HETATM    2  C5  UNL     1     -33.131   5.273   3.964  1.00 20.00     0.028 A 
HETATM    3  C6  UNL     1     -32.401   6.089   2.926  1.00 20.00     0.094 A 
ENDROOT
BRANCH   3   4
HETATM    4  C3  UNL     1     -32.877   7.419   2.525  1.00 20.00     0.263 C 
HETATM    5  O9  UNL     1     -33.544   8.152   3.241  1.00 20.00    -0.265 OA
BRANCH   4   6
HETATM    6  O10 UNL     1     -32.460   7.689   1.255  1.00 20.00    -0.326 OA
HETATM    7  C8  UNL     1     -32.857   8.962   0.735  1.00 20.00     0.213 C 
ENDBRANCH   4   6
ENDBRANCH   3   4
BRANCH   2   8
HETATM    8  C2  UNL     1     -34.339   5.783   4.597  1.00 20.00    -0.088 C 
HETATM    9  C1  UNL     1     -34.292   6.570   5.682  1.00 20.00     0.014 C 
HETATM   10  C7  UNL     1     -35.638   5.379   3.966  1.00 20.00     0.043 C 
ENDBRANCH   2   8
TORSDOF 3
