REMARK  0 active torsions:
REMARK  status: ('A' for Active; 'I' for Inactive)
ROOT
HETATM    1  C1  UNL     1     -32.691   8.324   1.145  1.00 20.00     0.017 C 
HETATM    2  C2  UNL     1     -32.932   7.589   2.062  1.00 20.00    -0.050 C 
HETATM    3  C3  UNL     1     -34.636   4.322   3.813  1.00 20.00     0.053 C 
HETATM    4  C4  UNL     1     -35.138   5.690   4.243  1.00 20.00     0.174 C 
HETATM    5  C5  UNL     1     -33.122   4.343   3.692  1.00 20.00     0.174 C 
HETATM    6  C6  UNL     1     -33.228   6.684   3.191  1.00 20.00     0.227 C 
HETATM    7  C7  UNL     1     -32.520   7.236   4.436  1.00 20.00     0.095 C 
HETATM    8  O8  UNL     1     -34.652   6.695   3.357  1.00 20.00    -0.345 OA
HETATM    9  O9  UNL     1     -32.710   5.398   2.828  1.00 20.00    -0.345 OA
ENDROOT
TORSDOF 0
