REMARK  3 active torsions:
REMARK  status: ('A' for Active; 'I' for Inactive)
REMARK    1  A    between atoms: C2_2  and  C6_6 
REMARK    2  A    between atoms: C3_3  and  C5_5 
REMARK    3  A    between atoms: C3_3  and  O10_10 
ROOT
HETATM    1  C4  UNL     1     -33.862   5.215   2.018  1.00 20.00     0.033 A 
HETATM    2  C5  UNL     1     -32.793   6.193   2.422  1.00 20.00     0.101 A 
HETATM    3  C6  UNL     1     -33.372   5.234   3.448  1.00 20.00     0.023 A 
HETATM    4  C7  UNL     1     -32.502   4.094   3.908  1.00 20.00     0.023 C 
ENDROOT
BRANCH   2   5
HETATM    5  C3  UNL     1     -33.107   7.628   2.453  1.00 20.00     0.263 C 
HETATM    6  O9  UNL     1     -33.410   8.241   3.468  1.00 20.00    -0.265 OA
BRANCH   5   7
HETATM    7  O10 UNL     1     -33.008   8.144   1.195  1.00 20.00    -0.326 OA
HETATM    8  C8  UNL     1     -33.291   9.543   1.080  1.00 20.00     0.213 C 
ENDBRANCH   5   7
ENDBRANCH   2   5
BRANCH   3   9
HETATM    9  C2  UNL     1     -34.300   5.759   4.457  1.00 20.00     0.093 C 
HETATM   10  C1  UNL     1     -33.952   6.382   5.589  1.00 20.00     0.052 C 
HETATM   11  F11 UNL     1     -35.624   5.601   4.220  1.00 20.00    -0.211 F 
ENDBRANCH   3   9
TORSDOF 3
