REMARK  2 active torsions:
REMARK  status: ('A' for Active; 'I' for Inactive)
REMARK    1  A    between atoms: C1_1  and  C4_4 
REMARK    2  A    between atoms: C3_3  and  C5_5 
ROOT
HETATM    1  C4  UNL     1     -33.936   6.841   4.076  1.00 20.00     0.029 A 
HETATM    2  C5  UNL     1     -33.174   5.627   3.598  1.00 20.00     0.089 A 
HETATM    3  C6  UNL     1     -32.676   7.018   3.248  1.00 20.00    -0.028 A 
HETATM    4  C8  UNL     1     -31.390   7.470   3.898  1.00 20.00     0.016 C 
HETATM    5  C9  UNL     1     -32.850   7.544   1.844  1.00 20.00     0.016 C 
ENDROOT
BRANCH   1   6
HETATM    6  C1  UNL     1     -33.948   7.150   5.499  1.00 20.00    -0.025 C 
HETATM    7  C2  UNL     1     -34.300   6.274   6.450  1.00 20.00    -0.034 C 
HETATM    8  C7  UNL     1     -34.725   4.870   6.170  1.00 20.00     0.036 C 
ENDBRANCH   1   6
BRANCH   2   9
HETATM    9  C3  UNL     1     -33.774   4.761   2.573  1.00 20.00     0.224 C 
HETATM   10  O10 UNL     1     -33.178   4.480   1.537  1.00 20.00    -0.279 OA
HETATM   11 CL11 UNL     1     -35.364   4.223   3.020  1.00 20.00    -0.043 Cl
ENDBRANCH   2   9
TORSDOF 2
