REMARK  1 active torsions:
REMARK  status: ('A' for Active; 'I' for Inactive)
REMARK    1  A    between atoms: C3_3  and  C7_7 
ROOT
HETATM    1  C1  UNL     1     -34.017   4.251   3.123  1.00 20.00    -0.029 C 
HETATM    2  C2  UNL     1     -34.721   4.542   4.226  1.00 20.00    -0.026 C 
HETATM    3  C4  UNL     1     -33.188   5.260   2.384  1.00 20.00     0.039 C 
HETATM    4  C5  UNL     1     -33.604   6.811   4.332  1.00 20.00     0.020 C 
HETATM    5  C6  UNL     1     -34.730   5.907   4.867  1.00 20.00     0.004 C 
HETATM    6  C7  UNL     1     -33.482   6.702   2.811  1.00 20.00     0.059 C 
HETATM    7  C9  UNL     1     -34.635   5.795   6.389  1.00 20.00     0.014 C 
ENDROOT
BRANCH   6   8
HETATM    8  C3  UNL     1     -32.391   7.601   2.316  1.00 20.00     0.127 C 
HETATM    9  C8  UNL     1     -32.565   8.181   0.939  1.00 20.00     0.091 C 
HETATM   10  O10 UNL     1     -31.402   7.852   3.002  1.00 20.00    -0.298 OA
ENDBRANCH   6   8
TORSDOF 1
