REMARK  2 active torsions:
REMARK  status: ('A' for Active; 'I' for Inactive)
REMARK    1  A    between atoms: C5_5  and  C8_8 
REMARK    2  A    between atoms: C8_8  and  N10_10 
ROOT
HETATM    1  C1  UNL     1     -32.368   6.501   1.305  1.00 20.00     0.135 A 
HETATM    2  C2  UNL     1     -32.736   5.473   2.141  1.00 20.00     0.112 A 
HETATM    3  C3  UNL     1     -33.726   7.361   2.699  1.00 20.00     0.210 A 
HETATM    4  N9  UNL     1     -32.987   7.673   1.658  1.00 20.00    -0.255 NA
HETATM    5  N10 UNL     1     -33.606   6.040   3.030  1.00 20.00    -0.338 N 
ENDROOT
BRANCH   5   6
HETATM    6  C8  UNL     1     -34.299   5.344   4.154  1.00 20.00     0.047 C 
HETATM    7  C6  UNL     1     -35.844   5.451   4.099  1.00 20.00     0.043 C 
HETATM    8  C7  UNL     1     -33.957   3.837   4.071  1.00 20.00     0.043 C 
BRANCH   6   9
HETATM    9  C5  UNL     1     -33.897   6.009   5.470  1.00 20.00    -0.007 C 
HETATM   10  C4  UNL     1     -34.705   6.566   6.382  1.00 20.00     0.009 C 
ENDBRANCH   6   9
ENDBRANCH   5   6
TORSDOF 2
