REMARK  1 active torsions:
REMARK  status: ('A' for Active; 'I' for Inactive)
REMARK    1  A    between atoms: C10_10  and  O13_13 
ROOT
HETATM    1  C1  UNL     1     -32.344   8.044   1.690  1.00 20.00     0.099 C 
HETATM    2  C2  UNL     1     -34.090   6.346   1.951  1.00 20.00     0.023 A 
HETATM    3  C3  UNL     1     -34.780   5.410   2.724  1.00 20.00     0.012 A 
HETATM    4  C4  UNL     1     -32.648   6.904   3.830  1.00 20.00     0.030 A 
HETATM    5  C5  UNL     1     -33.031   7.087   2.500  1.00 20.00     0.045 A 
HETATM    6  C6  UNL     1     -34.399   5.240   4.044  1.00 20.00    -0.023 A 
HETATM    7  C7  UNL     1     -33.346   5.982   4.592  1.00 20.00    -0.048 A 
HETATM    8  C8  UNL     1     -33.099   5.589   6.015  1.00 20.00     0.042 C 
HETATM    9  C9  UNL     1     -34.423   4.885   6.365  1.00 20.00     0.041 C 
HETATM   10  C10 UNL     1     -34.962   4.288   5.054  1.00 20.00     0.154 C 
HETATM   11  N12 UNL     1     -31.786   8.821   1.032  1.00 20.00    -0.191 NA
ENDROOT
BRANCH  10  12
HETATM   12  O13 UNL     1     -34.433   2.986   4.863  1.00 20.00    -0.386 OA
HETATM   13  C11 UNL     1     -35.091   2.297   3.805  1.00 20.00     0.202 C 
ENDBRANCH  10  12
TORSDOF 1
