REMARK  1 active torsions:
REMARK  status: ('A' for Active; 'I' for Inactive)
REMARK    1  A    between atoms: C1_1  and  C8_8 
ROOT
HETATM    1  C2  UNL     1     -35.732   5.243   5.239  1.00 20.00     0.005 C 
HETATM    2  C3  UNL     1     -34.311   4.688   5.419  1.00 20.00     0.006 C 
HETATM    3  C4  UNL     1     -34.217   7.039   5.617  1.00 20.00     0.010 C 
HETATM    4  C5  UNL     1     -34.984   6.748   3.374  1.00 20.00     0.023 C 
HETATM    5  C6  UNL     1     -35.485   6.708   4.834  1.00 20.00    -0.013 C 
HETATM    6  C7  UNL     1     -33.425   5.876   5.001  1.00 20.00     0.003 C 
HETATM    7  C8  UNL     1     -33.552   6.171   3.480  1.00 20.00     0.036 C 
HETATM    8  C9  UNL     1     -33.339   4.965   2.565  1.00 20.00     0.025 C 
ENDROOT
BRANCH   7   9
HETATM    9  C1  UNL     1     -32.517   7.203   3.102  1.00 20.00     0.227 C 
HETATM   10  O10 UNL     1     -31.650   7.567   3.892  1.00 20.00    -0.279 OA
HETATM   11 CL11 UNL     1     -32.723   7.770   1.473  1.00 20.00    -0.043 Cl
ENDBRANCH   7   9
TORSDOF 1
