REMARK  1 active torsions:
REMARK  status: ('A' for Active; 'I' for Inactive)
REMARK    1  A    between atoms: C3_3  and  C7_7 
ROOT
HETATM    1  C1  UNL     1     -34.810   4.563   3.641  1.00 20.00     0.346 C 
HETATM    2  C2  UNL     1     -33.780   6.567   4.365  1.00 20.00     0.233 C 
HETATM    3  C3  UNL     1     -32.958   6.350   3.076  1.00 20.00     0.081 C 
HETATM    4  C4  UNL     1     -32.936   7.277   5.427  1.00 20.00     0.044 C 
HETATM    5  C6  UNL     1     -35.136   5.235   5.928  1.00 20.00     0.311 C 
HETATM    6  N8  UNL     1     -34.205   5.220   4.803  1.00 20.00     0.098 N 
HETATM    7  S9  UNL     1     -33.861   5.052   2.179  1.00 20.00    -0.132 SA
ENDROOT
BRANCH   3   8
HETATM    8  C7  UNL     1     -32.829   7.600   2.217  1.00 20.00     0.013 C 
HETATM    9  C5  UNL     1     -32.125   7.320   0.928  1.00 20.00     0.006 C 
ENDBRANCH   3   8
TORSDOF 1
