REMARK  1 active torsions:
REMARK  status: ('A' for Active; 'I' for Inactive)
REMARK    1  A    between atoms: C1_1  and  C3_3 
ROOT
HETATM    1  C1  UNL     1     -33.338   7.143   2.921  1.00 20.00    -0.054 C 
HETATM    2  C2  UNL     1     -32.696   7.552   1.993  1.00 20.00     0.007 C 
HETATM    3 CL8  UNL     1     -31.758   8.148   0.637  1.00 20.00    -0.023 Cl
ENDROOT
BRANCH   1   4
HETATM    4  C3  UNL     1     -34.102   6.657   4.027  1.00 20.00     0.236 A 
HETATM    5  C4  UNL     1     -34.345   5.173   4.234  1.00 20.00     0.092 A 
HETATM    6  C5  UNL     1     -34.723   4.693   5.601  1.00 20.00     0.049 C 
HETATM    7  C6  UNL     1     -33.777   4.147   3.303  1.00 20.00     0.049 C 
HETATM    8  O7  UNL     1     -35.328   6.022   3.628  1.00 20.00    -0.357 OA
ENDBRANCH   1   4
TORSDOF 1
