REMARK  0 active torsions:
REMARK  status: ('A' for Active; 'I' for Inactive)
ROOT
HETATM    1  C1  UNL     1     -32.228   7.662   1.895  1.00 20.00     0.015 C 
HETATM    2  C2  UNL     1     -32.886   7.155   2.762  1.00 20.00    -0.076 C 
HETATM    3  C3  UNL     1     -33.804   6.346   6.311  1.00 20.00     0.004 C 
HETATM    4  C4  UNL     1     -34.856   5.260   6.119  1.00 20.00     0.003 C 
HETATM    5  C5  UNL     1     -33.755   7.286   5.109  1.00 20.00     0.055 C 
HETATM    6  C6  UNL     1     -34.486   4.344   4.956  1.00 20.00     0.042 C 
HETATM    7  C7  UNL     1     -33.672   6.549   3.797  1.00 20.00     0.154 A 
HETATM    8  C8  UNL     1     -34.084   5.080   3.704  1.00 20.00     0.102 A 
HETATM    9  C9  UNL     1     -33.646   4.219   2.556  1.00 20.00     0.050 C 
HETATM   10  O10 UNL     1     -34.970   6.132   3.320  1.00 20.00    -0.350 OA
ENDROOT
TORSDOF 0
