REMARK  2 active torsions:
REMARK  status: ('A' for Active; 'I' for Inactive)
REMARK    1  A    between atoms: C3_3  and  C6_6 
REMARK    2  A    between atoms: C3_3  and  O10_10 
ROOT
HETATM    1  C1  UNL     1     -34.353   5.085   3.597  1.00 20.00    -0.023 C 
HETATM    2  C2  UNL     1     -34.212   5.780   4.731  1.00 20.00    -0.087 C 
HETATM    3  C4  UNL     1     -33.261   5.374   2.621  1.00 20.00     0.042 C 
HETATM    4  C5  UNL     1     -32.999   6.656   4.700  1.00 20.00     0.048 C 
HETATM    5  C6  UNL     1     -32.552   6.586   3.235  1.00 20.00     0.093 C 
HETATM    6  C7  UNL     1     -35.089   5.721   5.929  1.00 20.00     0.043 C 
ENDROOT
BRANCH   5   7
HETATM    7  C3  UNL     1     -32.941   7.837   2.501  1.00 20.00     0.263 C 
HETATM    8  O9  UNL     1     -33.509   8.788   3.021  1.00 20.00    -0.265 OA
BRANCH   7   9
HETATM    9  O10 UNL     1     -32.565   7.735   1.195  1.00 20.00    -0.326 OA
HETATM   10  C8  UNL     1     -32.878   8.865   0.374  1.00 20.00     0.213 C 
ENDBRANCH   7   9
ENDBRANCH   5   7
TORSDOF 2
