REMARK  1 active torsions:
REMARK  status: ('A' for Active; 'I' for Inactive)
REMARK    1  A    between atoms: C3_3  and  C6_6 
ROOT
HETATM    1  C1  UNL     1     -34.189   4.928   6.218  1.00 20.00    -0.003 C 
HETATM    2  C2  UNL     1     -33.626   6.141   6.209  1.00 20.00     0.131 C 
HETATM    3  C4  UNL     1     -35.028   4.445   5.083  1.00 20.00     0.032 C 
HETATM    4  C5  UNL     1     -35.440   5.608   4.181  1.00 20.00     0.045 C 
HETATM    5  C6  UNL     1     -34.300   6.607   3.981  1.00 20.00     0.214 C 
HETATM    6  O8  UNL     1     -33.694   7.055   5.192  1.00 20.00    -0.349 OA
ENDROOT
BRANCH   5   7
HETATM    7  C3  UNL     1     -33.233   6.050   3.085  1.00 20.00     0.248 C 
HETATM    8  O7  UNL     1     -33.302   4.912   2.629  1.00 20.00    -0.277 OA
HETATM    9 CL9  UNL     1     -31.955   7.192   2.802  1.00 20.00    -0.041 Cl
ENDBRANCH   5   7
TORSDOF 1
