REMARK  1 active torsions:
REMARK  status: ('A' for Active; 'I' for Inactive)
REMARK    1  A    between atoms: C1_1  and  C5_5 
ROOT
HETATM    1  C2  UNL     1     -31.958   6.999   3.240  1.00 20.00     0.026 C 
HETATM    2  C3  UNL     1     -33.869   7.797   2.757  1.00 20.00     0.026 C 
HETATM    3  C4  UNL     1     -33.340   5.840   2.113  1.00 20.00     0.026 C 
HETATM    4  C5  UNL     1     -33.407   6.521   3.502  1.00 20.00     0.022 C 
HETATM    5  C6  UNL     1     -32.683   7.259   1.856  1.00 20.00    -0.041 C 
HETATM    6  C8  UNL     1     -32.132   7.819   0.604  1.00 20.00     0.015 C 
ENDROOT
BRANCH   4   7
HETATM    7  C1  UNL     1     -33.960   5.959   4.764  1.00 20.00     0.131 C 
HETATM    8  C7  UNL     1     -34.520   4.564   4.695  1.00 20.00     0.091 C 
HETATM    9  O9  UNL     1     -33.958   6.603   5.812  1.00 20.00    -0.298 OA
ENDBRANCH   4   7
TORSDOF 1
