REMARK  1 active torsions:
REMARK  status: ('A' for Active; 'I' for Inactive)
REMARK    1  A    between atoms: C6_6  and  C9_9 
ROOT
HETATM    1  C1  UNL     1     -34.343   5.454   5.431  1.00 20.00     0.119 C 
HETATM    2  C2  UNL     1     -33.449   5.506   3.151  1.00 20.00     0.043 A 
HETATM    3  C3  UNL     1     -32.953   6.268   2.099  1.00 20.00     0.012 A 
HETATM    4  C4  UNL     1     -33.256   8.213   3.434  1.00 20.00     0.125 A 
HETATM    5  C5  UNL     1     -33.827   6.166   4.309  1.00 20.00     0.136 A 
HETATM    6  C6  UNL     1     -32.851   7.648   2.236  1.00 20.00    -0.036 A 
HETATM    7  N10 UNL     1     -34.764   4.874   6.344  1.00 20.00    -0.190 NA
HETATM    8  N11 UNL     1     -33.743   7.505   4.478  1.00 20.00    -0.249 NA
ENDROOT
BRANCH   6   9
HETATM    9  C9  UNL     1     -32.327   8.491   1.129  1.00 20.00     0.020 A 
HETATM   10  C7  UNL     1     -33.167   9.632   0.612  1.00 20.00     0.010 A 
HETATM   11  C8  UNL     1     -32.975   8.410  -0.231  1.00 20.00     0.010 A 
ENDBRANCH   6   9
TORSDOF 1
