REMARK  2 active torsions:
REMARK  status: ('A' for Active; 'I' for Inactive)
REMARK    1  A    between atoms: C5_5  and  O10_10 
REMARK    2  A    between atoms: C9_9  and  O10_10 
ROOT
HETATM    1  C1  UNL     1     -33.324   8.810  -0.142  1.00 20.00     0.012 C 
HETATM    2  C2  UNL     1     -33.095   8.299   0.919  1.00 20.00    -0.110 C 
HETATM    3  C3  UNL     1     -32.662   6.193   2.252  1.00 20.00     0.053 A 
HETATM    4  C4  UNL     1     -32.820   7.689   2.186  1.00 20.00     0.095 A 
HETATM    5  C5  UNL     1     -33.888   6.840   2.829  1.00 20.00     0.139 A 
ENDROOT
BRANCH   5   6
HETATM    6  O10 UNL     1     -33.954   6.892   4.245  1.00 20.00    -0.375 OA
BRANCH   6   7
HETATM    7  C9  UNL     1     -34.481   5.678   4.784  1.00 20.00     0.050 C 
HETATM    8  C6  UNL     1     -33.568   4.526   4.369  1.00 20.00     0.045 C 
HETATM    9  C7  UNL     1     -34.508   5.823   6.304  1.00 20.00     0.045 C 
HETATM   10  C8  UNL     1     -35.894   5.477   4.238  1.00 20.00     0.045 C 
ENDBRANCH   6   7
ENDBRANCH   5   6
TORSDOF 2
