REMARK  1 active torsions:
REMARK  status: ('A' for Active; 'I' for Inactive)
REMARK    1  A    between atoms: C1_1  and  C9_9 
ROOT
HETATM    1  C2  UNL     1     -33.576   6.004   5.616  1.00 20.00     0.002 C 
HETATM    2  C3  UNL     1     -34.951   5.380   5.350  1.00 20.00     0.005 C 
HETATM    3  C4  UNL     1     -34.074   4.164   3.287  1.00 20.00     0.006 C 
HETATM    4  C5  UNL     1     -33.160   7.010   4.537  1.00 20.00     0.018 C 
HETATM    5  C6  UNL     1     -32.980   5.136   2.816  1.00 20.00     0.019 C 
HETATM    6  C7  UNL     1     -35.043   6.326   3.039  1.00 20.00     0.023 C 
HETATM    7  C8  UNL     1     -35.187   5.050   3.864  1.00 20.00    -0.013 C 
HETATM    8  C9  UNL     1     -33.531   6.542   3.118  1.00 20.00     0.036 C 
ENDROOT
BRANCH   8   9
HETATM    9  C1  UNL     1     -33.068   7.547   2.107  1.00 20.00     0.227 C 
HETATM   10  O10 UNL     1     -33.854   8.112   1.353  1.00 20.00    -0.279 OA
HETATM   11 CL11 UNL     1     -31.347   7.780   2.157  1.00 20.00    -0.043 Cl
ENDBRANCH   8   9
TORSDOF 1
