REMARK  1 active torsions:
REMARK  status: ('A' for Active; 'I' for Inactive)
REMARK    1  A    between atoms: C4_4  and  O11_11 
ROOT
HETATM    1  C1  UNL     1     -33.556   6.766   5.682  1.00 20.00     0.034 C 
HETATM    2  C2  UNL     1     -32.631   7.298   4.857  1.00 20.00     0.003 C 
HETATM    3  C3  UNL     1     -35.003   6.059   3.840  1.00 20.00     0.017 C 
HETATM    4  C4  UNL     1     -34.657   5.967   5.140  1.00 20.00     0.062 C 
HETATM    5  C5  UNL     1     -32.854   7.768   1.370  1.00 20.00     0.004 C 
HETATM    6  C6  UNL     1     -34.076   6.879   1.495  1.00 20.00     0.065 C 
HETATM    7  C7  UNL     1     -34.236   7.024   2.991  1.00 20.00     0.045 C 
HETATM    8  C8  UNL     1     -32.758   6.998   3.397  1.00 20.00     0.139 C 
HETATM    9  C9  UNL     1     -32.531   8.432   0.073  1.00 20.00     0.065 C 
HETATM   10  N10 UNL     1     -32.120   7.925   2.443  1.00 20.00    -0.289 NA
ENDROOT
BRANCH   4  11
HETATM   11  O11 UNL     1     -35.314   5.181   6.055  1.00 20.00    -0.361 OA
HETATM   12  H22 UNL     1     -36.022   4.688   5.624  1.00 20.00     0.217 HD
ENDBRANCH   4  11
TORSDOF 1
