REMARK  0 active torsions:
REMARK  status: ('A' for Active; 'I' for Inactive)
ROOT
HETATM    1  C1  UNL     1     -33.364   5.395   3.181  1.00 20.00    -0.054 C 
HETATM    2  C2  UNL     1     -33.528   6.964   4.909  1.00 20.00     0.226 C 
HETATM    3  C3  UNL     1     -33.318   4.189   2.600  1.00 20.00     0.017 C 
HETATM    4  C4  UNL     1     -34.300   5.813   4.291  1.00 20.00     0.104 C 
HETATM    5  C5  UNL     1     -32.394   6.500   2.873  1.00 20.00     0.109 C 
HETATM    6  C6  UNL     1     -34.634   4.752   5.328  1.00 20.00     0.025 C 
HETATM    7  C7  UNL     1     -32.775   7.292   1.631  1.00 20.00     0.037 C 
HETATM    8  N8  UNL     1     -32.490   7.311   4.057  1.00 20.00    -0.352 N 
HETATM    9  O9  UNL     1     -33.802   7.507   5.970  1.00 20.00    -0.273 OA
HETATM   10  H20 UNL     1     -31.850   8.074   4.253  1.00 20.00     0.163 HD
ENDROOT
TORSDOF 0
