REMARK  6 active torsions:
REMARK  status: ('A' for Active; 'I' for Inactive)
REMARK    1  A    between atoms: C2_2  and  C5_5 
REMARK    2  A    between atoms: C5_5  and  C8_8 
REMARK    3  A    between atoms: C6_6  and  C8_8 
REMARK    4  A    between atoms: C7_7  and  C9_9 
REMARK    5  A    between atoms: C9_9  and  C10_10 
REMARK    6  A    between atoms: C10_10  and  N11_11 
ROOT
HETATM    1  C1  UNL     1     -33.042   4.385   2.467  1.00 20.00     0.308 A 
HETATM    2  C2  UNL     1     -33.962   4.937   3.530  1.00 20.00     0.251 A 
HETATM    3  N11 UNL     1     -32.815   5.702   3.055  1.00 20.00     0.097 N 
ENDROOT
BRANCH   2   4
HETATM    4  C5  UNL     1     -33.932   4.381   4.910  1.00 20.00     0.037 C 
BRANCH   4   5
HETATM    5  C8  UNL     1     -34.913   5.109   5.828  1.00 20.00     0.002 C 
BRANCH   5   6
HETATM    6  C6  UNL     1     -34.602   6.604   5.900  1.00 20.00    -0.004 C 
HETATM    7  C3  UNL     1     -33.214   6.858   6.467  1.00 20.00     0.005 C 
ENDBRANCH   5   6
ENDBRANCH   4   5
ENDBRANCH   2   4
BRANCH   3   8
HETATM    8  C10 UNL     1     -33.187   6.795   2.165  1.00 20.00     0.273 C 
BRANCH   8   9
HETATM    9  C9  UNL     1     -32.086   7.132   1.164  1.00 20.00     0.030 C 
BRANCH   9  10
HETATM   10  C7  UNL     1     -32.462   8.297   0.246  1.00 20.00    -0.003 C 
HETATM   11  C4  UNL     1     -32.794   9.548   1.045  1.00 20.00     0.005 C 
ENDBRANCH   9  10
ENDBRANCH   8   9
ENDBRANCH   3   8
TORSDOF 6
