REMARK  0 active torsions:
REMARK  status: ('A' for Active; 'I' for Inactive)
ROOT
HETATM    1  C1  UNL     1     -32.773   8.588   2.014  1.00 20.00     0.014 C 
HETATM    2  C2  UNL     1     -32.859   7.576   2.653  1.00 20.00    -0.081 C 
HETATM    3  C3  UNL     1     -35.761   5.812   4.189  1.00 20.00     0.035 C 
HETATM    4  C4  UNL     1     -34.054   4.177   4.950  1.00 20.00     0.035 C 
HETATM    5  C5  UNL     1     -33.511   6.607   4.858  1.00 20.00     0.053 C 
HETATM    6  C6  UNL     1     -35.218   5.687   2.756  1.00 20.00     0.274 C 
HETATM    7  C7  UNL     1     -33.646   4.028   3.475  1.00 20.00     0.274 C 
HETATM    8  C8  UNL     1     -32.966   6.332   3.439  1.00 20.00     0.300 C 
HETATM    9  C9  UNL     1     -34.616   5.588   5.186  1.00 20.00    -0.008 C 
HETATM   10  N10 UNL     1     -33.785   5.307   2.739  1.00 20.00     0.104 N 
ENDROOT
TORSDOF 0
