REMARK  0 active torsions:
REMARK  status: ('A' for Active; 'I' for Inactive)
ROOT
HETATM    1  C1  UNL     1     -32.934   7.136   2.163  1.00 20.00     0.066 C 
HETATM    2  C2  UNL     1     -33.742   3.996   5.167  1.00 20.00     0.031 C 
HETATM    3  C3  UNL     1     -33.895   3.795   3.657  1.00 20.00     0.009 C 
HETATM    4  C4  UNL     1     -34.739   5.025   5.717  1.00 20.00     0.272 C 
HETATM    5  C5  UNL     1     -33.680   6.883   4.523  1.00 20.00     0.292 C 
HETATM    6  C6  UNL     1     -35.441   5.740   3.534  1.00 20.00     0.278 C 
HETATM    7  C7  UNL     1     -33.117   6.183   3.271  1.00 20.00     0.127 C 
HETATM    8  C8  UNL     1     -34.182   5.124   2.933  1.00 20.00     0.033 C 
HETATM    9  N9  UNL     1     -32.790   7.886   1.290  1.00 20.00    -0.197 NA
HETATM   10  N10 UNL     1     -34.955   6.202   4.848  1.00 20.00     0.090 N 
ENDROOT
TORSDOF 0
