REMARK  0 active torsions:
REMARK  status: ('A' for Active; 'I' for Inactive)
ROOT
HETATM    1  C1  UNL     1     -32.726   7.059   2.570  1.00 20.00    -0.056 A 
HETATM    2  C2  UNL     1     -34.084   5.777   3.945  1.00 20.00     0.087 A 
HETATM    3  C3  UNL     1     -32.054   7.574   1.533  1.00 20.00     0.017 C 
HETATM    4  C4  UNL     1     -32.644   7.606   3.986  1.00 20.00     0.158 A 
HETATM    5  C5  UNL     1     -33.957   6.588   6.062  1.00 20.00     0.144 A 
HETATM    6  C6  UNL     1     -34.915   5.367   5.996  1.00 20.00     0.141 A 
HETATM    7  C7  UNL     1     -33.679   5.852   2.537  1.00 20.00     0.035 A 
HETATM    8  C8  UNL     1     -32.955   4.569   2.122  1.00 20.00     0.028 C 
HETATM    9  C9  UNL     1     -34.895   6.114   1.646  1.00 20.00     0.028 C 
HETATM   10  N10 UNL     1     -33.532   6.703   4.685  1.00 20.00    -0.365 N 
HETATM   11  N11 UNL     1     -34.889   4.955   4.574  1.00 20.00    -0.377 N 
HETATM   12  H26 UNL     1     -35.369   4.201   4.098  1.00 20.00     0.160 HD
ENDROOT
TORSDOF 0
