REMARK  1 active torsions:
REMARK  status: ('A' for Active; 'I' for Inactive)
REMARK    1  A    between atoms: C5_5  and  C9_9 
ROOT
HETATM    1  C1  UNL     1     -32.060   7.628   4.075  1.00 20.00    -0.021 C 
HETATM    2  C2  UNL     1     -32.457   7.267   2.844  1.00 20.00    -0.024 C 
HETATM    3  C3  UNL     1     -33.942   6.422   5.112  1.00 20.00    -0.065 C 
HETATM    4  C4  UNL     1     -34.092   5.801   6.286  1.00 20.00     0.016 C 
HETATM    5  C6  UNL     1     -34.236   8.343   3.826  1.00 20.00     0.023 C 
HETATM    6  C7  UNL     1     -33.306   7.792   4.912  1.00 20.00     0.038 C 
HETATM    7  C8  UNL     1     -33.975   7.170   2.867  1.00 20.00     0.028 C 
HETATM    8  C9  UNL     1     -34.425   5.949   3.734  1.00 20.00     0.046 C 
HETATM    9  C11 UNL     1     -35.937   5.714   3.674  1.00 20.00     0.029 C 
ENDROOT
BRANCH   8  10
HETATM   10  C5  UNL     1     -33.716   4.681   3.328  1.00 20.00     0.136 C 
HETATM   11  C10 UNL     1     -32.709   4.127   4.300  1.00 20.00     0.092 C 
HETATM   12  O12 UNL     1     -33.951   4.125   2.256  1.00 20.00    -0.297 OA
ENDBRANCH   8  10
TORSDOF 1
