REMARK  3 active torsions:
REMARK  status: ('A' for Active; 'I' for Inactive)
REMARK    1  A    between atoms: C8_8  and  C9_9 
REMARK    2  A    between atoms: C9_9  and  C10_10 
REMARK    3  A    between atoms: C10_10  and  O11_11 
ROOT
HETATM    1  C1  UNL     1     -31.708   7.998   1.308  1.00 20.00     0.017 C 
HETATM    2  C2  UNL     1     -32.241   7.267   2.097  1.00 20.00    -0.083 C 
HETATM    3  C3  UNL     1     -33.305   6.904   4.204  1.00 20.00    -0.010 C 
HETATM    4  C4  UNL     1     -32.875   6.400   3.034  1.00 20.00    -0.009 C 
HETATM    5  C5  UNL     1     -33.994   6.088   5.261  1.00 20.00     0.033 C 
HETATM    6  C6  UNL     1     -33.029   4.941   2.688  1.00 20.00     0.048 C 
HETATM    7  C7  UNL     1     -33.408   4.063   3.886  1.00 20.00     0.010 C 
HETATM    8  C8  UNL     1     -34.477   4.710   4.777  1.00 20.00    -0.009 C 
ENDROOT
BRANCH   8   9
HETATM    9  C9  UNL     1     -35.828   4.808   4.061  1.00 20.00     0.031 C 
BRANCH   9  10
HETATM   10  C10 UNL     1     -36.973   4.937   5.048  1.00 20.00     0.164 C 
BRANCH  10  11
HETATM   11  O11 UNL     1     -36.968   3.798   5.898  1.00 20.00    -0.401 OA
HETATM   12  H25 UNL     1     -37.709   3.907   6.517  1.00 20.00     0.209 HD
ENDBRANCH  10  11
ENDBRANCH   9  10
ENDBRANCH   8   9
TORSDOF 3
