REMARK  3 active torsions:
REMARK  status: ('A' for Active; 'I' for Inactive)
REMARK    1  A    between atoms: C3_3  and  C7_7 
REMARK    2  A    between atoms: C5_5  and  C8_8 
REMARK    3  A    between atoms: C6_6  and  C9_9 
ROOT
HETATM    1  C7  UNL     1     -33.828   6.998   2.476  1.00 20.00     0.097 A 
HETATM    2  C8  UNL     1     -33.466   5.691   3.154  1.00 20.00     0.013 A 
HETATM    3  C9  UNL     1     -33.856   6.890   3.989  1.00 20.00     0.013 A 
ENDROOT
BRANCH   1   4
HETATM    4  C3  UNL     1     -32.735   7.758   1.895  1.00 20.00     0.177 C 
HETATM    5  O10 UNL     1     -31.638   7.684   2.514  1.00 20.00    -0.648 OA
HETATM    6  O11 UNL     1     -33.032   8.393   0.844  1.00 20.00    -0.648 OA
ENDBRANCH   1   4
BRANCH   2   7
HETATM    7  C5  UNL     1     -34.468   4.610   3.588  1.00 20.00     0.014 C 
HETATM    8  C1  UNL     1     -34.192   4.247   5.041  1.00 20.00    -0.025 C 
HETATM    9  C2  UNL     1     -34.539   5.315   5.783  1.00 20.00    -0.025 C 
HETATM   10  C6  UNL     1     -35.043   6.380   4.819  1.00 20.00     0.014 C 
HETATM   11  C4  UNL     1     -35.755   5.417   3.849  1.00 20.00     0.017 C 
ENDBRANCH   2   7
TORSDOF 3
