REMARK  2 active torsions:
REMARK  status: ('A' for Active; 'I' for Inactive)
REMARK    1  A    between atoms: C6_6  and  C9_9 
REMARK    2  A    between atoms: C9_9  and  N10_10 
ROOT
HETATM    1  C1  UNL     1     -34.881   5.037   4.864  1.00 20.00     0.006 C 
HETATM    2  C2  UNL     1     -34.593   4.354   3.746  1.00 20.00     0.004 C 
HETATM    3  C3  UNL     1     -34.283   6.334   5.123  1.00 20.00    -0.040 C 
HETATM    4  C4  UNL     1     -34.666   7.094   6.160  1.00 20.00     0.020 C 
HETATM    5  C7  UNL     1     -33.687   4.908   2.678  1.00 20.00     0.300 C 
HETATM    6  C8  UNL     1     -33.202   6.770   4.155  1.00 20.00     0.310 C 
HETATM    7  N10 UNL     1     -33.517   6.369   2.773  1.00 20.00     0.099 N 
ENDROOT
BRANCH   7   8
HETATM    8  C9  UNL     1     -32.491   6.834   1.842  1.00 20.00     0.299 C 
BRANCH   8   9
HETATM    9  C6  UNL     1     -32.681   8.297   1.608  1.00 20.00    -0.007 C 
HETATM   10  C5  UNL     1     -33.435   8.804   0.626  1.00 20.00     0.008 C 
ENDBRANCH   8   9
ENDBRANCH   7   8
TORSDOF 2
