REMARK  2 active torsions:
REMARK  status: ('A' for Active; 'I' for Inactive)
REMARK    1  A    between atoms: C3_3  and  C5_5 
REMARK    2  A    between atoms: C5_5  and  C9_9 
ROOT
HETATM    1  C1  UNL     1     -32.504   6.159   2.213  1.00 20.00    -0.012 A 
HETATM    2  C2  UNL     1     -32.467   8.079   0.583  1.00 20.00    -0.020 A 
HETATM    3  C3  UNL     1     -33.028   6.974   3.139  1.00 20.00    -0.003 A 
HETATM    4  C4  UNL     1     -32.993   8.900   1.509  1.00 20.00    -0.083 A 
HETATM    5  C6  UNL     1     -32.166   6.629   0.828  1.00 20.00     0.055 A 
HETATM    6  C7  UNL     1     -33.332   8.424   2.902  1.00 20.00     0.075 A 
HETATM    7  C8  UNL     1     -33.278  10.345   1.219  1.00 20.00     0.043 C 
ENDROOT
BRANCH   3   8
HETATM    8  C5  UNL     1     -33.319   6.409   4.459  1.00 20.00     0.261 C 
HETATM    9  O10 UNL     1     -32.779   6.859   5.471  1.00 20.00    -0.283 OA
BRANCH   8  10
HETATM   10  C9  UNL     1     -34.295   5.268   4.520  1.00 20.00     0.455 C 
HETATM   11  F11 UNL     1     -34.770   4.929   3.294  1.00 20.00    -0.163 F 
HETATM   12  F12 UNL     1     -35.372   5.566   5.289  1.00 20.00    -0.163 F 
HETATM   13  F13 UNL     1     -33.732   4.150   5.045  1.00 20.00    -0.163 F 
ENDBRANCH   8  10
ENDBRANCH   3   8
TORSDOF 2
