REMARK  0 active torsions:
REMARK  status: ('A' for Active; 'I' for Inactive)
ROOT
HETATM    1  C1  UNL     1     -34.986   4.607   5.056  1.00 20.00     0.031 A 
HETATM    2  C2  UNL     1     -33.970   4.648   2.826  1.00 20.00    -0.014 A 
HETATM    3  C3  UNL     1     -32.847   7.201   3.428  1.00 20.00    -0.013 A 
HETATM    4  C4  UNL     1     -35.139   5.246   6.229  1.00 20.00     0.117 A 
HETATM    5  C5  UNL     1     -33.875   7.062   5.661  1.00 20.00     0.128 A 
HETATM    6  C6  UNL     1     -34.183   5.228   4.019  1.00 20.00    -0.027 A 
HETATM    7  C7  UNL     1     -33.592   6.520   4.305  1.00 20.00    -0.012 A 
HETATM    8  C8  UNL     1     -33.132   5.274   1.744  1.00 20.00     0.032 A 
HETATM    9  C9  UNL     1     -32.561   6.672   2.052  1.00 20.00     0.032 A 
HETATM   10  N10 UNL     1     -34.598   6.471   6.565  1.00 20.00    -0.272 NA
ENDROOT
TORSDOF 0
