REMARK  3 active torsions:
REMARK  status: ('A' for Active; 'I' for Inactive)
REMARK    1  A    between atoms: C7_7  and  C8_8 
REMARK    2  A    between atoms: C8_8  and  C9_9 
REMARK    3  A    between atoms: C9_9  and  N10_10 
ROOT
HETATM    1  C1  UNL     1     -33.639   8.260   0.068  1.00 20.00     0.012 C 
HETATM    2  C3  UNL     1     -32.856   7.949   0.923  1.00 20.00    -0.117 C 
HETATM    3  C7  UNL     1     -31.893   7.567   1.966  1.00 20.00     0.096 C 
ENDROOT
BRANCH   3   4
HETATM    4  C8  UNL     1     -32.530   7.523   3.361  1.00 20.00     0.061 C 
BRANCH   4   5
HETATM    5  C9  UNL     1     -33.654   6.480   3.519  1.00 20.00     0.300 C 
HETATM    6  C4  UNL     1     -33.349   5.240   2.785  1.00 20.00    -0.081 C 
HETATM    7  C2  UNL     1     -33.105   4.229   2.184  1.00 20.00     0.014 C 
BRANCH   5   8
HETATM    8  N10 UNL     1     -33.819   6.173   4.942  1.00 20.00     0.095 N 
HETATM    9  C5  UNL     1     -34.913   5.223   5.134  1.00 20.00     0.310 C 
HETATM   10  C6  UNL     1     -34.065   7.398   5.701  1.00 20.00     0.310 C 
ENDBRANCH   5   8
ENDBRANCH   4   5
ENDBRANCH   3   4
TORSDOF 3
