REMARK  5 active torsions:
REMARK  status: ('A' for Active; 'I' for Inactive)
REMARK    1  A    between atoms: C2_2  and  C7_7 
REMARK    2  A    between atoms: C7_7  and  N11_11 
REMARK    3  A    between atoms: C8_8  and  C9_9 
REMARK    4  A    between atoms: C8_8  and  C10_10 
REMARK    5  A    between atoms: C9_9  and  N11_11 
ROOT
HETATM    1  C1  UNL     1     -32.850   8.247   0.845  1.00 20.00    -0.109 C 
HETATM    2  C2  UNL     1     -32.573   7.573   1.799  1.00 20.00    -0.077 C 
HETATM    3  C3  UNL     1     -33.188   9.067  -0.318  1.00 20.00     0.112 C 
ENDROOT
BRANCH   2   4
HETATM    4  C7  UNL     1     -32.230   6.756   2.967  1.00 20.00     0.365 C 
BRANCH   4   5
HETATM    5  N11 UNL     1     -33.088   5.562   3.043  1.00 20.00     0.095 N 
HETATM    6  C6  UNL     1     -32.908   4.752   1.828  1.00 20.00     0.310 C 
BRANCH   5   7
HETATM    7  C9  UNL     1     -34.465   5.918   3.237  1.00 20.00     0.273 C 
BRANCH   7   8
HETATM    8  C8  UNL     1     -35.278   4.788   3.864  1.00 20.00     0.034 C 
BRANCH   8   9
HETATM    9  C10 UNL     1     -34.808   4.345   5.264  1.00 20.00    -0.021 C 
HETATM   10  C4  UNL     1     -34.888   5.528   6.233  1.00 20.00     0.009 C 
HETATM   11  C5  UNL     1     -33.386   3.784   5.251  1.00 20.00     0.009 C 
ENDBRANCH   8   9
ENDBRANCH   7   8
ENDBRANCH   5   7
ENDBRANCH   4   5
ENDBRANCH   2   4
TORSDOF 5
