REMARK  2 active torsions:
REMARK  status: ('A' for Active; 'I' for Inactive)
REMARK    1  A    between atoms: C1_1  and  N9_9 
REMARK    2  A    between atoms: C4_4  and  C8_8 
ROOT
HETATM    1  C2  UNL     1     -32.769   5.518   2.286  1.00 20.00     0.031 C 
HETATM    2  C3  UNL     1     -32.231   7.578   3.407  1.00 20.00     0.130 C 
HETATM    3  C4  UNL     1     -32.305   6.958   2.016  1.00 20.00     0.005 C 
HETATM    4  C5  UNL     1     -33.596   5.584   3.574  1.00 20.00     0.083 C 
HETATM    5  C6  UNL     1     -35.099   5.558   3.317  1.00 20.00     0.032 C 
HETATM    6  N9  UNL     1     -33.162   6.818   4.221  1.00 20.00    -0.355 N 
ENDROOT
BRANCH   3   7
HETATM    7  C8  UNL     1     -33.249   7.726   1.095  1.00 20.00     0.002 C 
HETATM    8  C7  UNL     1     -32.801   9.139   0.885  1.00 20.00     0.005 C 
ENDBRANCH   3   7
BRANCH   6   9
HETATM    9  C1  UNL     1     -33.476   7.164   5.517  1.00 20.00     0.351 C 
HETATM   10  O10 UNL     1     -34.248   6.580   6.269  1.00 20.00    -0.284 OA
ENDBRANCH   6   9
TORSDOF 2
