REMARK  0 active torsions:
REMARK  status: ('A' for Active; 'I' for Inactive)
ROOT
HETATM    1  C1  UNL     1     -34.227   3.912   3.893  1.00 20.00     0.027 C 
HETATM    2  C2  UNL     1     -34.559   4.287   5.245  1.00 20.00     0.027 C 
HETATM    3  C3  UNL     1     -33.648   5.010   3.273  1.00 20.00     0.012 C 
HETATM    4  C4  UNL     1     -34.172   5.594   5.384  1.00 20.00     0.012 C 
HETATM    5  C5  UNL     1     -32.904   5.236   2.003  1.00 20.00     0.057 C 
HETATM    6  C6  UNL     1     -33.975   6.676   6.372  1.00 20.00     0.059 C 
HETATM    7  C7  UNL     1     -32.469   6.712   1.828  1.00 20.00     0.008 C 
HETATM    8  C8  UNL     1     -32.957   7.598   5.620  1.00 20.00     0.032 C 
HETATM    9  C9  UNL     1     -32.060   7.394   3.154  1.00 20.00     0.026 C 
HETATM   10  C10 UNL     1     -33.239   7.367   4.122  1.00 20.00     0.090 C 
HETATM   11  N11 UNL     1     -33.780   6.017   4.159  1.00 20.00    -0.349 N 
ENDROOT
TORSDOF 0
