REMARK  3 active torsions:
REMARK  status: ('A' for Active; 'I' for Inactive)
REMARK    1  A    between atoms: C1_1  and  C3_3 
REMARK    2  A    between atoms: C2_2  and  N8_8 
REMARK    3  A    between atoms: C4_4  and  C5_5 
ROOT
HETATM    1  C1  UNL     1     -32.672   7.084   1.818  1.00 20.00    -0.056 C 
HETATM    2  C2  UNL     1     -33.135   6.730   2.868  1.00 20.00     0.012 C 
ENDROOT
BRANCH   1   3
HETATM    3  C3  UNL     1     -32.120   7.497   0.576  1.00 20.00     0.069 C 
HETATM    4  C4  UNL     1     -32.402   8.697   0.056  1.00 20.00     0.050 C 
BRANCH   4   5
HETATM    5  C5  UNL     1     -33.304   9.601   0.795  1.00 20.00     0.259 C 
HETATM    6  O9  UNL     1     -33.043   9.994   1.926  1.00 20.00    -0.302 OA
ENDBRANCH   4   5
ENDBRANCH   1   3
BRANCH   2   7
HETATM    7  N8  UNL     1     -33.690   6.306   4.124  1.00 20.00    -0.350 N 
HETATM    8  C6  UNL     1     -35.043   5.770   4.128  1.00 20.00     0.159 C 
HETATM    9  C7  UNL     1     -33.222   6.964   5.335  1.00 20.00     0.159 C 
ENDBRANCH   2   7
TORSDOF 3
