REMARK  1 active torsions:
REMARK  status: ('A' for Active; 'I' for Inactive)
REMARK    1  A    between atoms: C6_6  and  N7_7 
ROOT
HETATM    1  C1  UNL     1     -34.924   5.364   3.609  1.00 20.00     0.284 C 
HETATM    2  C2  UNL     1     -33.959   4.253   3.209  1.00 20.00     0.106 C 
HETATM    3  C3  UNL     1     -33.116   6.753   3.021  1.00 20.00     0.280 C 
HETATM    4  C4  UNL     1     -31.891   7.562   3.437  1.00 20.00     0.055 C 
HETATM    5  N7  UNL     1     -34.164   6.551   4.042  1.00 20.00     0.102 N 
HETATM    6  S8  UNL     1     -32.616   5.120   2.368  1.00 20.00    -0.132 SA
ENDROOT
BRANCH   5   7
HETATM    7  C6  UNL     1     -33.666   6.392   5.408  1.00 20.00     0.269 C 
HETATM    8  C5  UNL     1     -34.787   6.197   6.370  1.00 20.00     0.037 C 
ENDBRANCH   5   7
TORSDOF 1
