REMARK  1 active torsions:
REMARK  status: ('A' for Active; 'I' for Inactive)
REMARK    1  A    between atoms: C1_1  and  C3_3 
ROOT
HETATM    1  C1  UNL     1     -33.360   6.456   3.141  1.00 20.00    -0.010 C 
HETATM    2  C2  UNL     1     -33.393   6.641   4.470  1.00 20.00    -0.066 C 
HETATM    3  C4  UNL     1     -33.781   5.154   2.523  1.00 20.00     0.042 C 
HETATM    4  C5  UNL     1     -33.293   7.941   5.223  1.00 20.00     0.035 C 
HETATM    5  C6  UNL     1     -34.846   4.462   3.381  1.00 20.00     0.005 C 
HETATM    6  C7  UNL     1     -33.978   7.641   6.561  1.00 20.00     0.005 C 
HETATM    7  C8  UNL     1     -34.369   4.275   4.820  1.00 20.00     0.009 C 
HETATM    8  C9  UNL     1     -34.715   6.317   6.357  1.00 20.00     0.009 C 
HETATM    9  C10 UNL     1     -33.778   5.546   5.435  1.00 20.00     0.015 C 
ENDROOT
BRANCH   1  10
HETATM   10  C3  UNL     1     -33.009   7.559   2.241  1.00 20.00     0.152 C 
HETATM   11  C11 UNL     1     -32.991   7.285   0.760  1.00 20.00     0.096 C 
HETATM   12  O12 UNL     1     -32.732   8.671   2.693  1.00 20.00    -0.293 OA
ENDBRANCH   1  10
TORSDOF 1
