REMARK  1 active torsions:
REMARK  status: ('A' for Active; 'I' for Inactive)
REMARK    1  A    between atoms: C3_3  and  C6_6 
ROOT
HETATM    1  C1  UNL     1     -32.969   7.644   4.127  1.00 20.00    -0.023 C 
HETATM    2  C2  UNL     1     -33.760   7.103   3.188  1.00 20.00    -0.071 C 
HETATM    3  C4  UNL     1     -33.054   6.907   5.423  1.00 20.00     0.033 C 
HETATM    4  C5  UNL     1     -34.348   6.100   5.247  1.00 20.00     0.005 C 
HETATM    5  C6  UNL     1     -34.497   5.894   3.718  1.00 20.00     0.043 C 
HETATM    6  C7  UNL     1     -33.889   7.578   1.782  1.00 20.00     0.044 C 
HETATM    7  C9  UNL     1     -34.384   4.841   6.104  1.00 20.00     0.011 C 
HETATM    8  C10 UNL     1     -35.965   5.810   3.302  1.00 20.00     0.029 C 
ENDROOT
BRANCH   5   9
HETATM    9  C3  UNL     1     -33.748   4.690   3.202  1.00 20.00     0.136 C 
HETATM   10  C8  UNL     1     -32.306   4.563   3.615  1.00 20.00     0.092 C 
HETATM   11  O11 UNL     1     -34.289   3.853   2.482  1.00 20.00    -0.297 OA
ENDBRANCH   5   9
TORSDOF 1
