REMARK  2 active torsions:
REMARK  status: ('A' for Active; 'I' for Inactive)
REMARK    1  A    between atoms: C4_4  and  C10_10 
REMARK    2  A    between atoms: C5_5  and  C10_10 
ROOT
HETATM    1  C1  UNL     1     -32.411   5.832   2.716  1.00 20.00    -0.026 C 
HETATM    2  C2  UNL     1     -33.011   6.922   3.217  1.00 20.00    -0.024 C 
HETATM    3  C6  UNL     1     -34.610   5.781   2.009  1.00 20.00     0.018 C 
HETATM    4  C7  UNL     1     -34.036   4.295   3.784  1.00 20.00     0.030 C 
HETATM    5  C8  UNL     1     -33.494   4.820   2.431  1.00 20.00     0.010 C 
HETATM    6  C9  UNL     1     -34.496   6.626   3.287  1.00 20.00     0.028 C 
HETATM    7  C10 UNL     1     -34.749   5.552   4.385  1.00 20.00     0.044 C 
ENDROOT
BRANCH   7   8
HETATM    8  C4  UNL     1     -36.205   5.318   4.647  1.00 20.00    -0.019 C 
HETATM    9  C3  UNL     1     -36.958   4.449   3.964  1.00 20.00     0.008 C 
ENDBRANCH   7   8
BRANCH   7  10
HETATM   10  C5  UNL     1     -34.186   5.944   5.722  1.00 20.00     0.136 C 
HETATM   11  C11 UNL     1     -34.318   4.937   6.833  1.00 20.00     0.092 C 
HETATM   12  O12 UNL     1     -33.642   7.033   5.900  1.00 20.00    -0.297 OA
ENDBRANCH   7  10
TORSDOF 2
