REMARK  1 active torsions:
REMARK  status: ('A' for Active; 'I' for Inactive)
REMARK    1  A    between atoms: C8_8  and  C10_10 
ROOT
HETATM    1  C1  UNL     1     -33.206   5.267   2.187  1.00 20.00     0.028 A 
HETATM    2  C2  UNL     1     -33.747   4.312   3.036  1.00 20.00     0.120 A 
HETATM    3  C3  UNL     1     -33.740   6.870   3.912  1.00 20.00     0.029 A 
HETATM    4  C4  UNL     1     -33.215   6.566   2.653  1.00 20.00    -0.034 A 
HETATM    5  C5  UNL     1     -34.256   5.857   4.685  1.00 20.00     0.220 A 
HETATM    6  C6  UNL     1     -33.623   8.294   4.157  1.00 20.00     0.013 A 
HETATM    7  C7  UNL     1     -33.040   8.844   3.080  1.00 20.00    -0.016 A 
HETATM    8  C8  UNL     1     -32.708   7.825   2.006  1.00 20.00     0.042 A 
HETATM    9  N11 UNL     1     -34.271   4.570   4.266  1.00 20.00    -0.232 NA
HETATM   10  F12 UNL     1     -34.764   6.133   5.894  1.00 20.00    -0.183 F 
ENDROOT
BRANCH   8  11
HETATM   11  C10 UNL     1     -33.398   8.137   0.685  1.00 20.00     0.009 C 
HETATM   12  C9  UNL     1     -32.946   9.443   0.116  1.00 20.00     0.006 C 
ENDBRANCH   8  11
TORSDOF 1
