REMARK  2 active torsions:
REMARK  status: ('A' for Active; 'I' for Inactive)
REMARK    1  A    between atoms: C1_1  and  C4_4 
REMARK    2  A    between atoms: C2_2  and  C5_5 
ROOT
HETATM    1  C5  UNL     1     -32.922   7.481   1.503  1.00 20.00     0.235 A 
HETATM    2  C6  UNL     1     -33.324   8.823   0.935  1.00 20.00     0.092 A 
HETATM    3  C8  UNL     1     -34.128   9.811   1.724  1.00 20.00     0.049 C 
HETATM    4  C9  UNL     1     -33.348   8.986  -0.553  1.00 20.00     0.049 C 
HETATM    5  O10 UNL     1     -32.014   8.589   1.467  1.00 20.00    -0.357 OA
ENDROOT
BRANCH   1   6
HETATM    6  C2  UNL     1     -33.281   7.100   2.845  1.00 20.00    -0.066 C 
HETATM    7  C1  UNL     1     -33.581   6.783   3.964  1.00 20.00    -0.070 C 
BRANCH   7   8
HETATM    8  C4  UNL     1     -33.941   6.400   5.291  1.00 20.00    -0.018 C 
HETATM    9  C3  UNL     1     -33.428   7.075   6.331  1.00 20.00     0.028 C 
HETATM   10  C7  UNL     1     -34.886   5.251   5.483  1.00 20.00     0.057 C 
ENDBRANCH   7   8
ENDBRANCH   1   6
TORSDOF 2
