REMARK  1 active torsions:
REMARK  status: ('A' for Active; 'I' for Inactive)
REMARK    1  A    between atoms: C8_8  and  N10_10 
ROOT
HETATM    1  C1  UNL     1     -32.740   7.682   1.804  1.00 20.00     0.089 C 
HETATM    2  C8  UNL     1     -32.409   6.561   2.683  1.00 20.00     0.396 C 
HETATM    3  N9  UNL     1     -32.999   8.573   1.107  1.00 20.00    -0.195 NA
ENDROOT
BRANCH   2   4
HETATM    4  N10 UNL     1     -33.604   5.818   3.046  1.00 20.00     0.110 N 
HETATM    5  C5  UNL     1     -33.330   4.659   3.944  1.00 20.00     0.283 C 
HETATM    6  C6  UNL     1     -34.418   4.819   5.027  1.00 20.00     0.038 C 
HETATM    7  C2  UNL     1     -34.028   6.000   5.886  1.00 20.00    -0.022 C 
HETATM    8  C4  UNL     1     -35.534   5.474   4.217  1.00 20.00     0.050 C 
HETATM    9  C3  UNL     1     -34.150   7.091   5.115  1.00 20.00     0.005 C 
HETATM   10  C7  UNL     1     -34.630   6.620   3.758  1.00 20.00     0.247 C 
ENDBRANCH   2   4
TORSDOF 1
