REMARK  2 active torsions:
REMARK  status: ('A' for Active; 'I' for Inactive)
REMARK    1  A    between atoms: C2_2  and  C3_3 
REMARK    2  A    between atoms: C4_4  and  C5_5 
ROOT
HETATM    1  C1  UNL     1     -32.929   7.521   1.819  1.00 20.00     0.087 C 
HETATM    2  C2  UNL     1     -32.976   6.377   2.661  1.00 20.00     0.093 C 
HETATM    3  N8  UNL     1     -32.891   8.458   1.135  1.00 20.00    -0.192 NA
ENDROOT
BRANCH   2   4
HETATM    4  C3  UNL     1     -33.080   5.140   2.155  1.00 20.00     0.012 C 
HETATM    5  C4  UNL     1     -33.131   3.954   2.980  1.00 20.00     0.017 C 
BRANCH   5   6
HETATM    6  C5  UNL     1     -33.815   3.889   4.129  1.00 20.00     0.084 C 
HETATM    7  N9  UNL     1     -34.552   4.872   4.708  1.00 20.00    -0.398 N 
HETATM    8  C6  UNL     1     -35.697   5.472   4.029  1.00 20.00     0.148 C 
HETATM    9  C7  UNL     1     -34.404   5.210   6.122  1.00 20.00     0.148 C 
ENDBRANCH   5   6
ENDBRANCH   2   4
TORSDOF 2
