REMARK  2 active torsions:
REMARK  status: ('A' for Active; 'I' for Inactive)
REMARK    1  A    between atoms: C1_1  and  C10_10 
REMARK    2  A    between atoms: C1_1  and  C11_11 
ROOT
HETATM    1  C2  UNL     1     -33.959   5.799   6.438  1.00 20.00     0.009 C 
HETATM    2  C3  UNL     1     -35.322   7.182   4.827  1.00 20.00     0.010 C 
HETATM    3  C4  UNL     1     -35.290   4.723   4.584  1.00 20.00     0.010 C 
HETATM    4  C5  UNL     1     -33.002   7.238   4.596  1.00 20.00     0.022 C 
HETATM    5  C6  UNL     1     -32.972   4.775   4.352  1.00 20.00     0.022 C 
HETATM    6  C7  UNL     1     -34.063   7.166   5.697  1.00 20.00    -0.013 C 
HETATM    7  C8  UNL     1     -34.031   4.602   5.444  1.00 20.00    -0.013 C 
HETATM    8  C9  UNL     1     -35.011   6.042   3.845  1.00 20.00     0.002 C 
HETATM    9  C10 UNL     1     -33.448   6.079   3.697  1.00 20.00     0.026 C 
ENDROOT
BRANCH   9  10
HETATM   10  C1  UNL     1     -32.985   6.212   2.284  1.00 20.00     0.149 C 
HETATM   11  O12 UNL     1     -33.269   5.355   1.449  1.00 20.00    -0.296 OA
BRANCH  10  12
HETATM   12  C11 UNL     1     -32.165   7.443   1.975  1.00 20.00     0.193 C 
HETATM   13 CL13 UNL     1     -33.208   8.776   1.455  1.00 20.00    -0.123 Cl
ENDBRANCH  10  12
ENDBRANCH   9  10
TORSDOF 2
