REMARK  1 active torsions:
REMARK  status: ('A' for Active; 'I' for Inactive)
REMARK    1  A    between atoms: C2_2  and  C3_3 
ROOT
HETATM    1  C1  UNL     1     -32.041   7.104   3.396  1.00 20.00    -0.015 C 
HETATM    2  C2  UNL     1     -32.998   7.264   2.464  1.00 20.00    -0.012 C 
HETATM    3  C4  UNL     1     -32.381   6.479   4.735  1.00 20.00     0.033 C 
HETATM    4  C5  UNL     1     -34.729   7.354   4.282  1.00 20.00     0.016 C 
HETATM    5  C6  UNL     1     -34.383   6.830   2.839  1.00 20.00     0.030 C 
HETATM    6  C7  UNL     1     -33.886   6.129   4.769  1.00 20.00    -0.002 C 
HETATM    7  C8  UNL     1     -34.445   5.371   3.484  1.00 20.00    -0.036 C 
HETATM    8  C10 UNL     1     -35.865   4.789   3.633  1.00 20.00     0.016 C 
HETATM    9  C11 UNL     1     -33.562   4.274   2.875  1.00 20.00     0.016 C 
ENDROOT
BRANCH   2  10
HETATM   10  C3  UNL     1     -32.676   7.847   1.166  1.00 20.00     0.151 C 
HETATM   11  C9  UNL     1     -33.382   9.119   0.758  1.00 20.00     0.096 C 
HETATM   12  O12 UNL     1     -31.852   7.311   0.417  1.00 20.00    -0.293 OA
ENDBRANCH   2  10
TORSDOF 1
