REMARK  0 active torsions:
REMARK  status: ('A' for Active; 'I' for Inactive)
ROOT
HETATM    1  C1  UNL     1     -35.274   4.156   3.832  1.00 20.00     0.053 A 
HETATM    2  C2  UNL     1     -34.290   5.014   3.509  1.00 20.00    -0.070 A 
HETATM    3  C3  UNL     1     -36.065   4.809   4.897  1.00 20.00     0.155 A 
HETATM    4  C4  UNL     1     -35.510   6.163   5.168  1.00 20.00     0.082 A 
HETATM    5  C5  UNL     1     -34.319   6.328   4.217  1.00 20.00    -0.002 A 
HETATM    6  C6  UNL     1     -34.121   6.392   5.738  1.00 20.00    -0.024 A 
HETATM    7  C7  UNL     1     -33.201   4.710   2.536  1.00 20.00     0.044 C 
HETATM    8  C8  UNL     1     -34.228   7.565   3.367  1.00 20.00     0.021 C 
HETATM    9  C9  UNL     1     -33.864   7.731   6.394  1.00 20.00     0.016 C 
HETATM   10  C10 UNL     1     -33.392   5.271   6.446  1.00 20.00     0.016 C 
HETATM   11  O11 UNL     1     -37.025   4.330   5.473  1.00 20.00    -0.293 OA
ENDROOT
TORSDOF 0
