REMARK  1 active torsions:
REMARK  status: ('A' for Active; 'I' for Inactive)
REMARK    1  A    between atoms: C1_1  and  C4_4 
ROOT
HETATM    1  C1  UNL     1     -33.374   7.070   2.815  1.00 20.00    -0.049 C 
HETATM    2  C2  UNL     1     -33.092   7.652   1.803  1.00 20.00     0.008 C 
HETATM    3 CL8  UNL     1     -32.680   8.500   0.325  1.00 20.00    -0.023 Cl
ENDROOT
BRANCH   1   4
HETATM    4  C4  UNL     1     -33.711   6.377   4.023  1.00 20.00     0.147 A 
HETATM    5  C3  UNL     1     -33.781   4.864   4.045  1.00 20.00     0.166 A 
HETATM    6  C5  UNL     1     -33.505   4.012   2.856  1.00 20.00     0.044 C 
HETATM    7  O7  UNL     1     -34.959   5.670   3.936  1.00 20.00    -0.356 OA
HETATM    8  C6  UNL     1     -33.535   7.117   5.310  1.00 20.00     0.063 C 
ENDBRANCH   1   4
TORSDOF 1
