REMARK  3 active torsions:
REMARK  status: ('A' for Active; 'I' for Inactive)
REMARK    1  A    between atoms: C7_7  and  C8_8 
REMARK    2  A    between atoms: C8_8  and  N10_10 
REMARK    3  A    between atoms: C9_9  and  N10_10 
ROOT
HETATM    1  C1  UNL     1     -34.377   5.967   6.399  1.00 20.00     0.015 C 
HETATM    2  C2  UNL     1     -34.293   5.894   5.204  1.00 20.00    -0.076 C 
HETATM    3  C4  UNL     1     -33.656   4.422   3.340  1.00 20.00     0.063 C 
HETATM    4  C5  UNL     1     -35.567   6.029   3.101  1.00 20.00     0.063 C 
HETATM    5  C9  UNL     1     -34.189   5.804   3.733  1.00 20.00     0.213 C 
ENDROOT
BRANCH   5   6
HETATM    6  N10 UNL     1     -33.276   6.826   3.260  1.00 20.00     0.104 N 
HETATM    7  C6  UNL     1     -32.124   6.955   4.159  1.00 20.00     0.312 C 
BRANCH   6   8
HETATM    8  C8  UNL     1     -32.819   6.531   1.898  1.00 20.00     0.273 C 
BRANCH   8   9
HETATM    9  C7  UNL     1     -32.324   7.774   1.170  1.00 20.00     0.026 C 
HETATM   10  C3  UNL     1     -33.392   8.852   1.053  1.00 20.00     0.007 C 
ENDBRANCH   8   9
ENDBRANCH   6   8
ENDBRANCH   5   6
TORSDOF 3
