REMARK  1 active torsions:
REMARK  status: ('A' for Active; 'I' for Inactive)
REMARK    1  A    between atoms: C2_2  and  C8_8 
ROOT
HETATM    1  C1  UNL     1     -33.192   6.898   4.426  1.00 20.00     0.136 C 
HETATM    2  C3  UNL     1     -33.889   6.811   5.766  1.00 20.00     0.079 C 
HETATM    3  C4  UNL     1     -35.013   5.780   5.786  1.00 20.00     0.007 C 
HETATM    4  C5  UNL     1     -34.589   4.511   5.056  1.00 20.00     0.002 C 
HETATM    5  C6  UNL     1     -34.364   4.774   3.566  1.00 20.00     0.018 C 
HETATM    6  C7  UNL     1     -34.772   7.077   2.437  1.00 20.00     0.030 A 
HETATM    7  C8  UNL     1     -33.529   6.495   1.837  1.00 20.00     0.064 A 
HETATM    8  C9  UNL     1     -33.875   6.191   3.290  1.00 20.00     0.031 A 
HETATM    9  O10 UNL     1     -32.148   7.523   4.275  1.00 20.00    -0.297 OA
ENDROOT
BRANCH   7  10
HETATM   10  C2  UNL     1     -32.422   7.383   1.465  1.00 20.00     0.236 C 
HETATM   11  O11 UNL     1     -32.563   8.385   0.772  1.00 20.00    -0.306 OA
ENDBRANCH   7  10
TORSDOF 1
