REMARK  1 active torsions:
REMARK  status: ('A' for Active; 'I' for Inactive)
REMARK    1  A    between atoms: C2_2  and  C3_3 
ROOT
HETATM    1  C1  UNL     1     -33.140   7.069   5.436  1.00 20.00     0.011 C 
HETATM    2  C2  UNL     1     -33.120   6.612   4.176  1.00 20.00     0.004 C 
HETATM    3  C4  UNL     1     -34.076   6.490   6.457  1.00 20.00     0.195 C 
HETATM    4  C5  UNL     1     -33.998   5.487   3.728  1.00 20.00     0.069 C 
HETATM    5  C6  UNL     1     -34.567   4.738   4.931  1.00 20.00     0.172 C 
HETATM    6  O8  UNL     1     -35.098   5.673   5.872  1.00 20.00    -0.387 OA
ENDROOT
BRANCH   2   7
HETATM    7  C3  UNL     1     -32.189   7.220   3.225  1.00 20.00     0.248 C 
HETATM    8  O7  UNL     1     -31.122   7.684   3.642  1.00 20.00    -0.274 OA
HETATM    9 CL9  UNL     1     -32.672   7.244   1.542  1.00 20.00    -0.039 Cl
ENDBRANCH   2   7
TORSDOF 1
