REMARK  2 active torsions:
REMARK  status: ('A' for Active; 'I' for Inactive)
REMARK    1  A    between atoms: C4_4  and  O11_11 
REMARK    2  A    between atoms: C10_10  and  O11_11 
ROOT
HETATM    1  C1  UNL     1     -32.463   8.165  -0.177  1.00 20.00     0.014 C 
HETATM    2  C2  UNL     1     -32.527   7.813   0.969  1.00 20.00    -0.091 C 
HETATM    3  C10 UNL     1     -32.603   7.387   2.367  1.00 20.00     0.268 C 
ENDROOT
BRANCH   3   4
HETATM    4  O11 UNL     1     -33.380   6.221   2.484  1.00 20.00    -0.344 OA
BRANCH   4   5
HETATM    5  C4  UNL     1     -33.849   6.024   3.768  1.00 20.00     0.047 C 
HETATM    6  C3  UNL     1     -33.571   6.877   4.768  1.00 20.00     0.006 C 
HETATM    7  C5  UNL     1     -34.077   6.703   6.169  1.00 20.00     0.029 C 
HETATM    8  C6  UNL     1     -34.696   5.329   6.430  1.00 20.00     0.004 C 
HETATM    9  C7  UNL     1     -35.541   4.865   5.246  1.00 20.00     0.011 C 
HETATM   10  C8  UNL     1     -34.725   4.806   3.940  1.00 20.00     0.038 C 
HETATM   11  C9  UNL     1     -33.880   3.530   3.871  1.00 20.00     0.017 C 
ENDBRANCH   4   5
ENDBRANCH   3   4
TORSDOF 2
