REMARK  1 active torsions:
REMARK  status: ('A' for Active; 'I' for Inactive)
REMARK    1  A    between atoms: C4_4  and  C10_10 
ROOT
HETATM    1  C1  UNL     1     -32.593   5.189   2.450  1.00 20.00     0.174 C 
HETATM    2  C2  UNL     1     -32.738   5.906   3.746  1.00 20.00     0.025 A 
HETATM    3  C3  UNL     1     -33.487   7.153   3.462  1.00 20.00     0.030 A 
HETATM    4  C4  UNL     1     -33.784   7.154   1.995  1.00 20.00     0.130 C 
HETATM    5  C5  UNL     1     -34.066   6.144   4.440  1.00 20.00    -0.035 A 
HETATM    6  C6  UNL     1     -35.278   5.330   4.068  1.00 20.00     0.016 C 
HETATM    7  C7  UNL     1     -34.017   6.505   5.904  1.00 20.00     0.016 C 
HETATM    8  O11 UNL     1     -33.451   5.842   1.497  1.00 20.00    -0.385 OA
ENDROOT
BRANCH   4   9
HETATM    9  C10 UNL     1     -32.955   8.181   1.237  1.00 20.00     0.007 C 
HETATM   10  C8  UNL     1     -31.461   7.918   1.427  1.00 20.00     0.012 C 
HETATM   11  C9  UNL     1     -33.312   8.175  -0.249  1.00 20.00     0.012 C 
ENDBRANCH   4   9
TORSDOF 1
