REMARK  0 active torsions:
REMARK  status: ('A' for Active; 'I' for Inactive)
ROOT
HETATM    1  C1  UNL     1     -36.946   5.992   4.207  1.00 20.00     0.015 C 
HETATM    2  C2  UNL     1     -35.771   5.744   4.237  1.00 20.00    -0.073 C 
HETATM    3  C3  UNL     1     -33.890   5.158   5.716  1.00 20.00     0.225 C 
HETATM    4  C4  UNL     1     -33.420   7.343   5.220  1.00 20.00     0.442 C 
HETATM    5  C5  UNL     1     -34.324   5.438   4.274  1.00 20.00     0.240 C 
HETATM    6  C6  UNL     1     -34.026   4.242   3.369  1.00 20.00     0.066 C 
HETATM    7  C7  UNL     1     -33.791   7.387   2.814  1.00 20.00     0.315 C 
HETATM    8  N8  UNL     1     -33.455   6.583   3.977  1.00 20.00     0.130 N 
HETATM    9  O9  UNL     1     -33.652   6.445   6.314  1.00 20.00    -0.359 OA
ENDROOT
TORSDOF 0
