REMARK  2 active torsions:
REMARK  status: ('A' for Active; 'I' for Inactive)
REMARK    1  A    between atoms: C2_2  and  C5_5 
REMARK    2  A    between atoms: C3_3  and  C6_6 
REMARK       I    between atoms: C3_3  and  N9_9 
ROOT
HETATM    1  C4  UNL     1     -32.754   8.538   3.533  1.00 20.00     0.024 A 
HETATM    2  C5  UNL     1     -32.131   8.248   2.195  1.00 20.00     0.021 A 
HETATM    3  C6  UNL     1     -32.190   7.195   3.247  1.00 20.00     0.086 A 
ENDROOT
BRANCH   3   4
HETATM    4  C3  UNL     1     -33.150   6.040   3.106  1.00 20.00     0.224 C 
HETATM    5  N9  UNL     1     -34.051   5.844   4.154  1.00 20.00    -0.360 N 
HETATM    6  C7  UNL     1     -35.032   4.767   4.147  1.00 20.00     0.152 C 
HETATM    7  C8  UNL     1     -34.076   6.705   5.333  1.00 20.00     0.152 C 
HETATM    8  O10 UNL     1     -33.099   5.334   2.095  1.00 20.00    -0.273 OA
ENDBRANCH   3   4
BRANCH   2   9
HETATM    9  C2  UNL     1     -32.983   8.211   1.016  1.00 20.00    -0.031 C 
HETATM   10  C1  UNL     1     -33.810   9.199   0.659  1.00 20.00     0.007 C 
ENDBRANCH   2   9
TORSDOF 2
