REMARK  0 active torsions:
REMARK  status: ('A' for Active; 'I' for Inactive)
ROOT
HETATM    1  C1  UNL     1     -35.101   5.804   6.583  1.00 20.00     0.004 A 
HETATM    2  C2  UNL     1     -35.012   4.950   5.549  1.00 20.00     0.031 A 
HETATM    3  C3  UNL     1     -34.397   7.068   6.552  1.00 20.00     0.017 A 
HETATM    4  C4  UNL     1     -32.154   6.947   2.110  1.00 20.00     0.044 A 
HETATM    5  C5  UNL     1     -34.105   4.410   3.340  1.00 20.00     0.146 A 
HETATM    6  C6  UNL     1     -33.659   7.372   5.473  1.00 20.00     0.093 A 
HETATM    7  C7  UNL     1     -34.206   5.280   4.372  1.00 20.00     0.053 A 
HETATM    8  C8  UNL     1     -32.728   6.940   3.313  1.00 20.00     0.136 A 
HETATM    9  C9  UNL     1     -32.842   5.797   2.306  1.00 20.00     0.069 A 
HETATM   10  N10 UNL     1     -33.368   4.679   2.207  1.00 20.00    -0.260 NA
HETATM   11  N11 UNL     1     -33.526   6.540   4.358  1.00 20.00    -0.333 N 
ENDROOT
TORSDOF 0
