REMARK  1 active torsions:
REMARK  status: ('A' for Active; 'I' for Inactive)
REMARK    1  A    between atoms: C1_1  and  C6_6 
ROOT
HETATM    1  C2  UNL     1     -32.944   7.620   0.893  1.00 20.00     0.005 A 
HETATM    2  C3  UNL     1     -32.917   8.640   2.038  1.00 20.00     0.005 A 
HETATM    3  C4  UNL     1     -33.135   5.415   2.310  1.00 20.00     0.018 C 
HETATM    4  C5  UNL     1     -33.048   7.011   4.092  1.00 20.00     0.018 C 
HETATM    5  C6  UNL     1     -33.995   6.026   3.413  1.00 20.00     0.073 C 
HETATM    6  C7  UNL     1     -32.275   6.572   1.805  1.00 20.00    -0.010 A 
HETATM    7  C8  UNL     1     -32.227   7.605   2.950  1.00 20.00    -0.010 A 
ENDROOT
BRANCH   5   8
HETATM    8  C1  UNL     1     -34.491   4.981   4.359  1.00 20.00     0.223 C 
HETATM    9  O9  UNL     1     -34.239   3.791   4.195  1.00 20.00    -0.279 OA
HETATM   10 CL10 UNL     1     -35.425   5.663   5.655  1.00 20.00    -0.043 Cl
ENDBRANCH   5   8
TORSDOF 1
