REMARK  1 active torsions:
REMARK  status: ('A' for Active; 'I' for Inactive)
REMARK    1  A    between atoms: C10_10  and  O11_11 
ROOT
HETATM    1  C1  UNL     1     -31.379   7.798   3.312  1.00 20.00     0.012 C 
HETATM    2  C2  UNL     1     -33.524   7.524   6.901  1.00 20.00     0.015 C 
HETATM    3  C3  UNL     1     -32.476   7.316   3.373  1.00 20.00    -0.108 C 
HETATM    4  C4  UNL     1     -33.770   6.831   5.952  1.00 20.00    -0.078 C 
HETATM    5  C5  UNL     1     -33.263   4.489   2.340  1.00 20.00     0.002 C 
HETATM    6  C6  UNL     1     -33.513   3.763   3.658  1.00 20.00     0.004 C 
HETATM    7  C7  UNL     1     -34.061   5.791   2.245  1.00 20.00     0.021 C 
HETATM    8  C8  UNL     1     -33.268   4.670   4.866  1.00 20.00     0.053 C 
HETATM    9  C9  UNL     1     -33.829   6.722   3.449  1.00 20.00     0.111 C 
HETATM   10  C10 UNL     1     -34.074   5.978   4.786  1.00 20.00     0.134 C 
ENDROOT
BRANCH  10  11
HETATM   11  O11 UNL     1     -35.461   5.621   4.855  1.00 20.00    -0.376 OA
HETATM   12  H23 UNL     1     -35.956   6.453   4.832  1.00 20.00     0.211 HD
ENDBRANCH  10  11
TORSDOF 1
