REMARK  1 active torsions:
REMARK  status: ('A' for Active; 'I' for Inactive)
REMARK    1  A    between atoms: C5_5  and  C10_10 
ROOT
HETATM    1  C1  UNL     1     -34.040   3.888   3.515  1.00 20.00     0.003 C 
HETATM    2  C2  UNL     1     -33.633   4.076   2.250  1.00 20.00    -0.025 C 
HETATM    3  C3  UNL     1     -34.321   4.968   5.749  1.00 20.00    -0.019 C 
HETATM    4  C4  UNL     1     -34.127   4.993   4.426  1.00 20.00    -0.057 C 
HETATM    5  C6  UNL     1     -33.205   5.416   1.707  1.00 20.00     0.039 C 
HETATM    6  C7  UNL     1     -34.270   6.348   6.323  1.00 20.00     0.028 C 
HETATM    7  C8  UNL     1     -33.624   7.158   5.193  1.00 20.00     0.014 C 
HETATM    8  C9  UNL     1     -33.970   6.395   3.908  1.00 20.00     0.029 C 
HETATM    9  C10 UNL     1     -32.907   6.455   2.808  1.00 20.00     0.059 C 
ENDROOT
BRANCH   9  10
HETATM   10  C5  UNL     1     -32.864   7.821   2.194  1.00 20.00     0.236 C 
HETATM   11  O11 UNL     1     -32.554   8.027   1.026  1.00 20.00    -0.306 OA
ENDBRANCH   9  10
TORSDOF 1
