REMARK  1 active torsions:
REMARK  status: ('A' for Active; 'I' for Inactive)
REMARK    1  A    between atoms: C3_3  and  C7_7 
ROOT
HETATM    1  C1  UNL     1     -34.676   5.929   6.560  1.00 20.00     0.006 C 
HETATM    2  C2  UNL     1     -35.341   5.388   5.530  1.00 20.00     0.007 C 
HETATM    3  C4  UNL     1     -32.957   6.926   5.077  1.00 20.00     0.054 C 
HETATM    4  C5  UNL     1     -33.215   5.895   6.193  1.00 20.00     0.244 C 
HETATM    5  C6  UNL     1     -34.304   5.016   4.499  1.00 20.00     0.255 C 
HETATM    6  C7  UNL     1     -33.754   6.321   3.887  1.00 20.00     0.094 C 
HETATM    7  N9  UNL     1     -33.142   4.667   5.363  1.00 20.00     0.100 N 
HETATM    8  H21 UNL     1     -32.274   4.634   4.830  1.00 20.00     0.317 HD
ENDROOT
BRANCH   6   9
HETATM    9  C3  UNL     1     -32.883   6.085   2.690  1.00 20.00     0.129 C 
HETATM   10  C8  UNL     1     -32.755   4.663   2.215  1.00 20.00     0.091 C 
HETATM   11  O10 UNL     1     -32.303   7.009   2.122  1.00 20.00    -0.298 OA
ENDBRANCH   6   9
TORSDOF 1
