REMARK  1 active torsions:
REMARK  status: ('A' for Active; 'I' for Inactive)
REMARK    1  A    between atoms: C3_3  and  C9_9 
ROOT
HETATM    1  C1  UNL     1     -34.712   7.140   5.784  1.00 20.00    -0.030 C 
HETATM    2  C2  UNL     1     -34.604   6.052   6.575  1.00 20.00    -0.029 C 
HETATM    3  C4  UNL     1     -34.575   7.108   4.275  1.00 20.00     0.032 C 
HETATM    4  C5  UNL     1     -34.379   4.642   6.057  1.00 20.00     0.044 C 
HETATM    5  C6  UNL     1     -34.061   4.960   2.598  1.00 20.00     0.007 C 
HETATM    6  C7  UNL     1     -34.071   3.694   3.516  1.00 20.00     0.018 C 
HETATM    7  C8  UNL     1     -33.969   5.765   3.915  1.00 20.00     0.005 C 
HETATM    8  C9  UNL     1     -34.785   4.602   4.579  1.00 20.00     0.027 C 
ENDROOT
BRANCH   8   9
HETATM    9  C3  UNL     1     -36.352   4.576   4.432  1.00 20.00     0.132 C 
HETATM   10  C10 UNL     1     -37.073   3.418   5.067  1.00 20.00     0.091 C 
HETATM   11  O11 UNL     1     -36.958   5.461   3.829  1.00 20.00    -0.298 OA
ENDBRANCH   8   9
TORSDOF 1
