REMARK  1 active torsions:
REMARK  status: ('A' for Active; 'I' for Inactive)
REMARK    1  A    between atoms: C1_1  and  C6_6 
ROOT
HETATM    1  C2  UNL     1     -33.820   5.917   1.947  1.00 20.00     0.019 C 
HETATM    2  C3  UNL     1     -33.688   7.710   3.730  1.00 20.00     0.019 C 
HETATM    3  C4  UNL     1     -33.912   4.847   3.031  1.00 20.00     0.080 C 
HETATM    4  C5  UNL     1     -33.781   6.639   4.813  1.00 20.00     0.080 C 
HETATM    5  C6  UNL     1     -33.072   7.159   2.441  1.00 20.00     0.072 C 
HETATM    6  C7  UNL     1     -34.508   5.403   4.312  1.00 20.00     0.243 C 
HETATM    7  F9  UNL     1     -34.487   4.446   5.273  1.00 20.00    -0.206 F 
HETATM    8  F10 UNL     1     -35.815   5.708   4.101  1.00 20.00    -0.206 F 
ENDROOT
BRANCH   5   9
HETATM    9  C1  UNL     1     -33.082   8.217   1.378  1.00 20.00     0.223 C 
HETATM   10  O8  UNL     1     -33.139   7.934   0.185  1.00 20.00    -0.279 OA
HETATM   11 CL11 UNL     1     -33.006   9.818   2.049  1.00 20.00    -0.043 Cl
ENDBRANCH   5   9
TORSDOF 1
