REMARK  1 active torsions:
REMARK  status: ('A' for Active; 'I' for Inactive)
REMARK    1  A    between atoms: C1_1  and  C7_7 
ROOT
HETATM    1  C1  UNL     1     -33.112   6.905   2.311  1.00 20.00    -0.057 C 
HETATM    2  C2  UNL     1     -32.748   7.531   1.353  1.00 20.00     0.276 C 
HETATM    3  O10 UNL     1     -32.392   8.144   0.415  1.00 20.00    -0.274 OA
ENDROOT
BRANCH   1   4
HETATM    4  C7  UNL     1     -33.507   6.226   3.352  1.00 20.00     0.023 A 
HETATM    5  C5  UNL     1     -33.895   6.954   4.558  1.00 20.00     0.021 A 
HETATM    6  C3  UNL     1     -34.306   6.279   5.646  1.00 20.00     0.002 A 
HETATM    7  C4  UNL     1     -34.378   4.828   5.660  1.00 20.00     0.001 A 
HETATM    8  C6  UNL     1     -34.037   4.093   4.587  1.00 20.00     0.012 A 
HETATM    9  C8  UNL     1     -33.576   4.747   3.355  1.00 20.00    -0.027 A 
HETATM   10  C9  UNL     1     -33.241   3.986   2.298  1.00 20.00     0.025 C 
ENDBRANCH   1   4
TORSDOF 1
