REMARK  0 active torsions:
REMARK  status: ('A' for Active; 'I' for Inactive)
ROOT
HETATM    1  C1  UNL     1     -34.665   5.446   5.242  1.00 20.00     0.223 A 
HETATM    2  C2  UNL     1     -36.028   6.199   3.449  1.00 20.00     0.128 A 
HETATM    3  C3  UNL     1     -33.876   6.483   4.530  1.00 20.00     0.092 A 
HETATM    4  C4  UNL     1     -34.734   6.952   3.376  1.00 20.00     0.026 A 
HETATM    5  C5  UNL     1     -33.383   6.312   3.108  1.00 20.00    -0.029 A 
HETATM    6  C6  UNL     1     -32.273   7.228   2.654  1.00 20.00     0.016 C 
HETATM    7  C7  UNL     1     -33.302   4.936   2.499  1.00 20.00     0.016 C 
HETATM    8  N8  UNL     1     -35.888   5.338   4.605  1.00 20.00    -0.360 N 
HETATM    9  O9  UNL     1     -34.252   4.839   6.216  1.00 20.00    -0.273 OA
HETATM   10  H20 UNL     1     -36.614   4.696   4.907  1.00 20.00     0.162 HD
ENDROOT
TORSDOF 0
