REMARK  1 active torsions:
REMARK  status: ('A' for Active; 'I' for Inactive)
REMARK    1  A    between atoms: C1_1  and  C5_5 
ROOT
HETATM    1  C2  UNL     1     -32.852   7.690   4.569  1.00 20.00     0.015 C 
HETATM    2  C3  UNL     1     -31.580   7.493   3.748  1.00 20.00     0.021 C 
HETATM    3  C4  UNL     1     -33.175   5.970   2.846  1.00 20.00     0.033 C 
HETATM    4  C5  UNL     1     -33.819   6.603   4.086  1.00 20.00     0.073 C 
HETATM    5  C6  UNL     1     -32.071   6.933   2.421  1.00 20.00     0.083 C 
HETATM    6 CL9  UNL     1     -32.731   8.233   1.387  1.00 20.00    -0.125 Cl
ENDROOT
BRANCH   4   7
HETATM    7  C1  UNL     1     -34.035   5.569   5.146  1.00 20.00     0.223 C 
HETATM    8  O7  UNL     1     -33.986   5.848   6.340  1.00 20.00    -0.279 OA
HETATM    9 CL8  UNL     1     -34.348   3.998   4.473  1.00 20.00    -0.043 Cl
ENDBRANCH   4   7
TORSDOF 1
