REMARK  1 active torsions:
REMARK  status: ('A' for Active; 'I' for Inactive)
REMARK    1  A    between atoms: C1_1  and  C4_4 
ROOT
HETATM    1  C2  UNL     1     -34.475   7.326   3.139  1.00 20.00     0.037 C 
HETATM    2  C3  UNL     1     -32.523   7.128   3.993  1.00 20.00     0.037 C 
HETATM    3  C4  UNL     1     -33.956   6.930   4.541  1.00 20.00     0.058 C 
HETATM    4  C5  UNL     1     -33.082   6.964   2.553  1.00 20.00     0.035 C 
HETATM    5  C7  UNL     1     -32.547   8.007   1.574  1.00 20.00     0.032 C 
HETATM    6 CL9  UNL     1     -32.943   5.310   1.853  1.00 20.00    -0.120 Cl
ENDROOT
BRANCH   3   7
HETATM    7  C1  UNL     1     -34.331   5.542   5.076  1.00 20.00     0.127 C 
HETATM    8  C6  UNL     1     -34.939   5.487   6.451  1.00 20.00     0.091 C 
HETATM    9  O8  UNL     1     -34.146   4.523   4.412  1.00 20.00    -0.298 OA
ENDBRANCH   3   7
TORSDOF 1
