REMARK  1 active torsions:
REMARK  status: ('A' for Active; 'I' for Inactive)
REMARK    1  A    between atoms: C2_2  and  C3_3 
ROOT
HETATM    1  C1  UNL     1     -32.238   7.489   3.579  1.00 20.00    -0.009 C 
HETATM    2  C2  UNL     1     -33.023   7.367   2.467  1.00 20.00    -0.007 C 
HETATM    3  C4  UNL     1     -34.714   4.951   4.743  1.00 20.00     0.002 C 
HETATM    4  C5  UNL     1     -33.397   5.592   5.263  1.00 20.00     0.009 C 
HETATM    5  C6  UNL     1     -34.932   5.554   3.320  1.00 20.00     0.015 C 
HETATM    6  C7  UNL     1     -33.319   6.778   4.347  1.00 20.00     0.021 C 
HETATM    7  C8  UNL     1     -33.532   6.028   2.965  1.00 20.00    -0.007 C 
HETATM    8  C10 UNL     1     -32.675   4.860   2.432  1.00 20.00     0.021 C 
ENDROOT
BRANCH   2   9
HETATM    9  C3  UNL     1     -32.856   8.021   1.178  1.00 20.00     0.152 C 
HETATM   10  C9  UNL     1     -32.025   7.327   0.122  1.00 20.00     0.096 C 
HETATM   11  O11 UNL     1     -33.374   9.122   0.948  1.00 20.00    -0.293 OA
ENDBRANCH   2   9
TORSDOF 1
