REMARK  4 active torsions:
REMARK  status: ('A' for Active; 'I' for Inactive)
REMARK    1  A    between atoms: C1_1  and  C7_7 
REMARK    2  A    between atoms: C6_6  and  O10_10 
REMARK    3  A    between atoms: C7_7  and  C8_8 
REMARK    4  A    between atoms: C7_7  and  O10_10 
ROOT
HETATM    1  C7  UNL     1     -33.360   6.982   2.810  1.00 20.00     0.193 C 
ENDROOT
BRANCH   1   2
HETATM    2  C1  UNL     1     -33.362   5.497   3.160  1.00 20.00     0.152 C 
HETATM    3  C2  UNL     1     -34.493   4.991   4.018  1.00 20.00     0.093 C 
HETATM    4  O9  UNL     1     -32.484   4.731   2.761  1.00 20.00    -0.296 OA
ENDBRANCH   1   2
BRANCH   1   5
HETATM    5  C8  UNL     1     -32.566   7.828   3.821  1.00 20.00     0.014 C 
HETATM    6  C4  UNL     1     -32.793   7.378   5.269  1.00 20.00     0.012 C 
HETATM    7  C5  UNL     1     -31.067   7.778   3.504  1.00 20.00     0.012 C 
ENDBRANCH   1   5
BRANCH   1   8
HETATM    8  O10 UNL     1     -32.820   7.146   1.507  1.00 20.00    -0.378 OA
BRANCH   8   9
HETATM    9  C6  UNL     1     -33.196   8.394   0.938  1.00 20.00     0.164 C 
HETATM   10  C3  UNL     1     -32.591   8.507  -0.445  1.00 20.00     0.033 C 
ENDBRANCH   8   9
ENDBRANCH   1   8
TORSDOF 4
