REMARK  1 active torsions:
REMARK  status: ('A' for Active; 'I' for Inactive)
REMARK    1  A    between atoms: C2_2  and  C3_3 
ROOT
HETATM    1  C1  UNL     1     -33.343   5.204   2.448  1.00 20.00    -0.015 C 
HETATM    2  C2  UNL     1     -33.352   6.463   2.894  1.00 20.00    -0.012 C 
HETATM    3  C4  UNL     1     -34.221   4.335   3.288  1.00 20.00     0.032 C 
HETATM    4  C5  UNL     1     -34.222   6.655   4.100  1.00 20.00     0.022 C 
HETATM    5  C6  UNL     1     -35.081   5.368   4.037  1.00 20.00    -0.007 C 
HETATM    6  C8  UNL     1     -33.387   6.822   5.367  1.00 20.00     0.015 C 
HETATM    7  C9  UNL     1     -35.611   4.842   5.364  1.00 20.00     0.011 C 
ENDROOT
BRANCH   2   8
HETATM    8  C3  UNL     1     -32.596   7.529   2.258  1.00 20.00     0.151 C 
HETATM    9  C7  UNL     1     -32.894   7.859   0.811  1.00 20.00     0.096 C 
HETATM   10  O10 UNL     1     -31.722   8.151   2.877  1.00 20.00    -0.293 OA
ENDBRANCH   2   8
TORSDOF 1
