REMARK  0 active torsions:
REMARK  status: ('A' for Active; 'I' for Inactive)
ROOT
HETATM    1  C1  UNL     1     -32.555   8.255   0.727  1.00 20.00     0.015 C 
HETATM    2  C2  UNL     1     -32.654   7.718   1.796  1.00 20.00    -0.076 C 
HETATM    3  C3  UNL     1     -33.832   7.784   3.948  1.00 20.00     0.057 C 
HETATM    4  C4  UNL     1     -34.305   6.728   4.931  1.00 20.00     0.044 C 
HETATM    5  C5  UNL     1     -32.776   7.057   3.110  1.00 20.00     0.218 C 
HETATM    6  C6  UNL     1     -34.203   5.402   4.154  1.00 20.00     0.154 C 
HETATM    7  C7  UNL     1     -31.408   7.071   3.814  1.00 20.00     0.064 C 
HETATM    8  C8  UNL     1     -33.673   4.297   5.082  1.00 20.00     0.049 C 
HETATM    9  C9  UNL     1     -35.592   4.991   3.635  1.00 20.00     0.049 C 
HETATM   10  C10 UNL     1     -32.507   4.665   2.471  1.00 20.00     0.313 C 
HETATM   11  N11 UNL     1     -33.374   5.718   2.970  1.00 20.00     0.114 N 
ENDROOT
TORSDOF 0
