REMARK  0 active torsions:
REMARK  status: ('A' for Active; 'I' for Inactive)
ROOT
HETATM    1  C1  UNL     1     -33.754   8.420   0.985  1.00 20.00     0.015 C 
HETATM    2  C2  UNL     1     -33.367   7.705   1.868  1.00 20.00    -0.075 C 
HETATM    3  C3  UNL     1     -32.581   8.160   4.910  1.00 20.00     0.034 C 
HETATM    4  C4  UNL     1     -33.774   4.637   2.581  1.00 20.00     0.034 C 
HETATM    5  C5  UNL     1     -31.801   7.523   3.769  1.00 20.00     0.057 C 
HETATM    6  C6  UNL     1     -32.503   5.453   2.400  1.00 20.00     0.057 C 
HETATM    7  C7  UNL     1     -33.635   7.110   5.214  1.00 20.00     0.275 C 
HETATM    8  C8  UNL     1     -34.303   5.142   3.913  1.00 20.00     0.275 C 
HETATM    9  C9  UNL     1     -32.890   6.824   2.955  1.00 20.00     0.221 C 
HETATM   10  N10 UNL     1     -34.006   6.579   3.898  1.00 20.00     0.110 N 
ENDROOT
TORSDOF 0
