REMARK  0 active torsions:
REMARK  status: ('A' for Active; 'I' for Inactive)
ROOT
HETATM    1  C1  UNL     1     -34.187   4.279   3.526  1.00 20.00     0.131 A 
HETATM    2  C2  UNL     1     -33.184   6.105   2.491  1.00 20.00     0.233 A 
HETATM    3  C3  UNL     1     -34.283   5.059   4.615  1.00 20.00     0.010 A 
HETATM    4  C4  UNL     1     -33.820   6.320   4.570  1.00 20.00     0.070 A 
HETATM    5  C5  UNL     1     -34.688   5.238   5.983  1.00 20.00     0.017 A 
HETATM    6  C6  UNL     1     -34.219   6.522   5.945  1.00 20.00     0.033 A 
HETATM    7  N7  UNL     1     -33.619   4.802   2.411  1.00 20.00    -0.253 NA
HETATM    8  N8  UNL     1     -33.252   6.942   3.556  1.00 20.00    -0.241 NA
ENDROOT
TORSDOF 0
