REMARK  1 active torsions:
REMARK  status: ('A' for Active; 'I' for Inactive)
REMARK    1  A    between atoms: C3_3  and  C7_7 
ROOT
HETATM    1  C1  UNL     1     -33.880   6.177   5.782  1.00 20.00    -0.070 C 
HETATM    2  C2  UNL     1     -33.210   7.025   6.569  1.00 20.00     0.015 C 
HETATM    3  C4  UNL     1     -33.559   3.752   5.501  1.00 20.00     0.009 C 
HETATM    4  C5  UNL     1     -33.971   3.888   4.023  1.00 20.00     0.006 C 
HETATM    5  C6  UNL     1     -35.705   4.777   5.371  1.00 20.00     0.014 C 
HETATM    6  C7  UNL     1     -34.308   6.407   4.356  1.00 20.00     0.119 C 
HETATM    7  C8  UNL     1     -34.416   4.821   6.195  1.00 20.00     0.015 C 
HETATM    8  C9  UNL     1     -34.983   5.055   4.045  1.00 20.00     0.004 C 
ENDROOT
BRANCH   6   9
HETATM    9  C3  UNL     1     -33.150   6.723   3.445  1.00 20.00     0.181 C 
HETATM   10  O10 UNL     1     -33.262   6.297   2.263  1.00 20.00    -0.647 OA
HETATM   11  O11 UNL     1     -32.213   7.376   3.986  1.00 20.00    -0.647 OA
ENDBRANCH   6   9
TORSDOF 1
