REMARK  2 active torsions:
REMARK  status: ('A' for Active; 'I' for Inactive)
REMARK    1  A    between atoms: C4_4  and  O10_10 
REMARK    2  A    between atoms: C5_5  and  C6_6 
ROOT
HETATM    1  C1  UNL     1     -34.483   5.139   4.138  1.00 20.00     0.040 A 
HETATM    2  C2  UNL     1     -33.917   5.375   2.890  1.00 20.00     0.034 A 
HETATM    3  C3  UNL     1     -33.144   6.895   5.020  1.00 20.00     0.153 A 
HETATM    4  C4  UNL     1     -34.095   5.909   5.228  1.00 20.00     0.083 A 
HETATM    5  C5  UNL     1     -32.974   6.385   2.787  1.00 20.00     0.056 A 
HETATM    6  N9  UNL     1     -32.571   7.154   3.823  1.00 20.00    -0.258 NA
ENDROOT
BRANCH   5   7
HETATM    7  C6  UNL     1     -32.353   6.669   1.503  1.00 20.00     0.027 C 
HETATM    8  C7  UNL     1     -32.426   7.840   0.829  1.00 20.00    -0.029 C 
HETATM    9  C8  UNL     1     -33.173   9.040   1.314  1.00 20.00     0.036 C 
ENDBRANCH   5   7
BRANCH   4  10
HETATM   10  O10 UNL     1     -34.630   5.702   6.457  1.00 20.00    -0.359 OA
HETATM   11  H19 UNL     1     -35.278   4.978   6.429  1.00 20.00     0.217 HD
ENDBRANCH   4  10
TORSDOF 2
