REMARK  3 active torsions:
REMARK  status: ('A' for Active; 'I' for Inactive)
REMARK    1  A    between atoms: C3_3  and  C8_8 
REMARK    2  A    between atoms: C7_7  and  C8_8 
REMARK    3  A    between atoms: C8_8  and  C9_9 
ROOT
HETATM    1  C1  UNL     1     -32.963   9.195   1.028  1.00 20.00     0.012 C 
HETATM    2  C2  UNL     1     -33.099   8.067   1.418  1.00 20.00    -0.117 C 
HETATM    3  C7  UNL     1     -33.265   6.683   1.894  1.00 20.00     0.105 C 
ENDROOT
BRANCH   3   4
HETATM    4  C8  UNL     1     -33.800   6.641   3.338  1.00 20.00     0.069 C 
BRANCH   4   5
HETATM    5  C3  UNL     1     -34.527   5.319   3.618  1.00 20.00     0.128 C 
HETATM    6  C4  UNL     1     -33.698   4.060   3.545  1.00 20.00     0.091 C 
HETATM    7  O10 UNL     1     -35.729   5.267   3.876  1.00 20.00    -0.298 OA
ENDBRANCH   4   5
BRANCH   4   8
HETATM    8  C9  UNL     1     -32.719   6.874   4.426  1.00 20.00    -0.011 C 
HETATM    9  C5  UNL     1     -31.907   8.156   4.219  1.00 20.00     0.010 C 
HETATM   10  C6  UNL     1     -33.331   6.870   5.830  1.00 20.00     0.010 C 
ENDBRANCH   4   8
ENDBRANCH   3   4
TORSDOF 3
