REMARK  1 active torsions:
REMARK  status: ('A' for Active; 'I' for Inactive)
REMARK    1  A    between atoms: C2_2  and  C6_6 
ROOT
HETATM    1  C1  UNL     1     -33.971   5.937   4.211  1.00 20.00    -0.067 C 
HETATM    2  C3  UNL     1     -34.789   5.123   4.889  1.00 20.00    -0.085 C 
HETATM    3  C4  UNL     1     -32.797   6.652   4.825  1.00 20.00     0.036 C 
HETATM    4  C5  UNL     1     -32.088   7.275   3.626  1.00 20.00     0.009 C 
HETATM    5  C6  UNL     1     -34.117   6.299   2.756  1.00 20.00     0.080 C 
HETATM    6  C7  UNL     1     -33.218   7.536   2.628  1.00 20.00    -0.004 C 
HETATM    7  C8  UNL     1     -35.948   4.431   4.231  1.00 20.00     0.043 C 
HETATM    8  C9  UNL     1     -34.604   4.848   6.354  1.00 20.00     0.043 C 
HETATM    9  C10 UNL     1     -32.722   7.845   1.224  1.00 20.00     0.011 C 
ENDROOT
BRANCH   5  10
HETATM   10  C2  UNL     1     -33.661   5.117   1.951  1.00 20.00     0.240 C 
HETATM   11  O11 UNL     1     -32.827   4.310   2.348  1.00 20.00    -0.306 OA
ENDBRANCH   5  10
TORSDOF 1
