REMARK  1 active torsions:
REMARK  status: ('A' for Active; 'I' for Inactive)
REMARK    1  A    between atoms: C3_3  and  C7_7 
ROOT
HETATM    1  C1  UNL     1     -33.647   4.148   3.164  1.00 20.00    -0.030 C 
HETATM    2  C2  UNL     1     -32.978   4.729   2.156  1.00 20.00    -0.025 C 
HETATM    3  C4  UNL     1     -34.108   4.944   4.353  1.00 20.00     0.027 C 
HETATM    4  C5  UNL     1     -34.385   6.418   4.023  1.00 20.00     0.010 C 
HETATM    5  C6  UNL     1     -32.603   6.147   2.150  1.00 20.00     0.025 A 
HETATM    6  C7  UNL     1     -33.574   7.191   1.669  1.00 20.00     0.085 A 
HETATM    7  C8  UNL     1     -33.319   7.026   3.152  1.00 20.00     0.007 A 
ENDROOT
BRANCH   6   8
HETATM    8  C3  UNL     1     -33.061   8.389   0.992  1.00 20.00     0.224 C 
HETATM    9  O9  UNL     1     -32.824   8.397  -0.212  1.00 20.00    -0.279 OA
HETATM   10 CL10 UNL     1     -32.850   9.720   2.089  1.00 20.00    -0.043 Cl
ENDBRANCH   6   8
TORSDOF 1
