REMARK  1 active torsions:
REMARK  status: ('A' for Active; 'I' for Inactive)
REMARK    1  A    between atoms: C5_5  and  C7_7 
ROOT
HETATM    1  C1  UNL     1     -32.674   5.807   2.447  1.00 20.00    -0.026 A 
HETATM    2  C2  UNL     1     -33.520   4.901   2.957  1.00 20.00    -0.013 A 
HETATM    3  C3  UNL     1     -32.985   7.242   4.490  1.00 20.00    -0.019 A 
HETATM    4  C4  UNL     1     -33.836   6.342   5.017  1.00 20.00    -0.071 A 
HETATM    5  C6  UNL     1     -32.299   7.067   3.166  1.00 20.00     0.054 A 
HETATM    6  C7  UNL     1     -34.179   5.060   4.297  1.00 20.00     0.123 A 
HETATM    7  C8  UNL     1     -34.535   6.601   6.323  1.00 20.00     0.044 C 
ENDROOT
BRANCH   6   8
HETATM    8  C5  UNL     1     -33.684   3.912   5.125  1.00 20.00     0.230 C 
HETATM    9  O9  UNL     1     -33.104   4.090   6.193  1.00 20.00    -0.279 OA
HETATM   10 CL10 UNL     1     -34.032   2.377   4.391  1.00 20.00    -0.043 Cl
ENDBRANCH   6   8
TORSDOF 1
