REMARK  2 active torsions:
REMARK  status: ('A' for Active; 'I' for Inactive)
REMARK    1  A    between atoms: C1_1  and  C5_5 
REMARK    2  A    between atoms: C5_5  and  C6_6 
ROOT
HETATM    1  C2  UNL     1     -34.958   4.984   5.528  1.00 20.00     0.003 C 
HETATM    2  C3  UNL     1     -35.463   5.824   4.342  1.00 20.00     0.026 C 
HETATM    3  C4  UNL     1     -33.555   5.562   5.278  1.00 20.00     0.026 C 
HETATM    4  C5  UNL     1     -33.994   5.900   3.818  1.00 20.00     0.110 C 
ENDROOT
BRANCH   4   5
HETATM    5  C1  UNL     1     -33.649   4.802   2.808  1.00 20.00     0.249 C 
HETATM    6  O7  UNL     1     -32.547   4.691   2.281  1.00 20.00    -0.306 OA
ENDBRANCH   4   5
BRANCH   4   7
HETATM    7  C6  UNL     1     -33.547   7.295   3.298  1.00 20.00     0.401 C 
HETATM    8  F8  UNL     1     -34.167   7.570   2.142  1.00 20.00    -0.170 F 
HETATM    9  F9  UNL     1     -33.859   8.237   4.198  1.00 20.00    -0.170 F 
HETATM   10  F10 UNL     1     -32.222   7.302   3.096  1.00 20.00    -0.170 F 
ENDBRANCH   4   7
TORSDOF 2
