REMARK  3 active torsions:
REMARK  status: ('A' for Active; 'I' for Inactive)
REMARK    1  A    between atoms: C4_4  and  C5_5 
REMARK    2  A    between atoms: C6_6  and  C9_9 
REMARK    3  A    between atoms: C7_7  and  C10_10 
ROOT
HETATM    1  C1  UNL     1     -34.306   6.294   6.264  1.00 20.00    -0.029 C 
HETATM    2  C2  UNL     1     -33.790   7.304   5.559  1.00 20.00    -0.021 C 
HETATM    3  C8  UNL     1     -34.411   5.043   5.460  1.00 20.00     0.039 C 
HETATM    4  C9  UNL     1     -33.470   6.906   4.152  1.00 20.00     0.041 C 
HETATM    5  C10 UNL     1     -33.621   5.372   4.187  1.00 20.00     0.062 C 
ENDROOT
BRANCH   4   6
HETATM    6  C6  UNL     1     -32.097   7.322   3.732  1.00 20.00    -0.017 C 
HETATM    7  C5  UNL     1     -31.756   7.591   2.464  1.00 20.00    -0.004 C 
BRANCH   7   8
HETATM    8  C4  UNL     1     -32.686   7.508   1.362  1.00 20.00    -0.011 C 
HETATM    9  C3  UNL     1     -32.350   7.775   0.094  1.00 20.00     0.011 C 
ENDBRANCH   7   8
ENDBRANCH   4   6
BRANCH   5  10
HETATM   10  C7  UNL     1     -34.343   4.883   2.968  1.00 20.00     0.236 C 
HETATM   11  O11 UNL     1     -33.914   5.021   1.827  1.00 20.00    -0.306 OA
ENDBRANCH   5  10
TORSDOF 3
