REMARK  1 active torsions:
REMARK  status: ('A' for Active; 'I' for Inactive)
REMARK    1  A    between atoms: C1_1  and  C4_4 
ROOT
HETATM    1  C1  UNL     1     -33.065   7.196   3.428  1.00 20.00    -0.068 C 
HETATM    2  C2  UNL     1     -32.479   7.585   2.454  1.00 20.00    -0.108 C 
HETATM    3  C6  UNL     1     -31.766   8.060   1.270  1.00 20.00     0.112 C 
ENDROOT
BRANCH   1   4
HETATM    4  C4  UNL     1     -33.774   6.725   4.603  1.00 20.00     0.129 C 
HETATM    5  C5  UNL     1     -34.063   5.179   4.667  1.00 20.00     0.016 C 
HETATM    6  C3  UNL     1     -35.520   5.639   4.891  1.00 20.00     0.182 C 
HETATM    7  C8  UNL     1     -33.463   4.402   5.836  1.00 20.00     0.021 C 
HETATM    8  C9  UNL     1     -33.908   4.390   3.362  1.00 20.00     0.021 C 
HETATM    9  O10 UNL     1     -35.202   6.981   4.444  1.00 20.00    -0.366 OA
HETATM   10  C7  UNL     1     -33.266   7.435   5.857  1.00 20.00     0.061 C 
ENDBRANCH   1   4
TORSDOF 1
