REMARK  1 active torsions:
REMARK  status: ('A' for Active; 'I' for Inactive)
REMARK    1  A    between atoms: C1_1  and  C4_4 
ROOT
HETATM    1  C2  UNL     1     -34.437   4.502   4.685  1.00 20.00     0.031 A 
HETATM    2  C3  UNL     1     -35.461   5.404   4.064  1.00 20.00     0.031 A 
HETATM    3  C4  UNL     1     -33.999   5.772   3.997  1.00 20.00     0.078 A 
HETATM    4 BR7  UNL     1     -33.415   7.214   5.133  1.00 20.00    -0.077 Br
ENDROOT
BRANCH   3   5
HETATM    5  C1  UNL     1     -33.299   5.676   2.706  1.00 20.00     0.142 C 
HETATM    6  C5  UNL     1     -33.069   4.292   2.161  1.00 20.00     0.092 C 
HETATM    7  O6  UNL     1     -32.922   6.679   2.101  1.00 20.00    -0.297 OA
ENDBRANCH   3   5
TORSDOF 1
