REMARK  3 active torsions:
REMARK  status: ('A' for Active; 'I' for Inactive)
REMARK    1  A    between atoms: C1_1  and  C4_4 
REMARK    2  A    between atoms: C3_3  and  C7_7 
REMARK    3  A    between atoms: C7_7  and  O9_9 
ROOT
HETATM    1  C1  UNL     1     -33.165   6.380   3.752  1.00 20.00    -0.066 C 
HETATM    2  C2  UNL     1     -33.223   5.815   2.694  1.00 20.00    -0.108 C 
HETATM    3  C5  UNL     1     -33.294   5.127   1.406  1.00 20.00     0.112 C 
ENDROOT
BRANCH   1   4
HETATM    4  C4  UNL     1     -33.096   7.054   5.015  1.00 20.00     0.148 A 
HETATM    5  C3  UNL     1     -33.823   6.498   6.222  1.00 20.00     0.194 A 
HETATM    6  O8  UNL     1     -34.366   7.571   5.446  1.00 20.00    -0.354 OA
HETATM    7  C6  UNL     1     -31.964   8.009   5.221  1.00 20.00     0.063 C 
BRANCH   5   8
HETATM    8  C7  UNL     1     -34.627   5.246   6.191  1.00 20.00     0.200 C 
BRANCH   8   9
HETATM    9  O9  UNL     1     -35.695   5.376   5.252  1.00 20.00    -0.398 OA
HETATM   10  H19 UNL     1     -36.181   4.538   5.273  1.00 20.00     0.209 HD
ENDBRANCH   8   9
ENDBRANCH   5   8
ENDBRANCH   1   4
TORSDOF 3
