REMARK  2 active torsions:
REMARK  status: ('A' for Active; 'I' for Inactive)
REMARK    1  A    between atoms: C1_1  and  C5_5 
REMARK    2  A    between atoms: C6_6  and  C9_9 
ROOT
HETATM    1  C2  UNL     1     -32.690   5.629   1.379  1.00 20.00     0.012 C 
HETATM    2  C3  UNL     1     -33.736   5.334   2.446  1.00 20.00     0.006 C 
HETATM    3  C4  UNL     1     -32.685   7.391   3.086  1.00 20.00     0.016 C 
HETATM    4  C5  UNL     1     -32.250   7.069   1.651  1.00 20.00     0.047 C 
HETATM    5  C6  UNL     1     -33.192   6.069   3.666  1.00 20.00    -0.010 C 
ENDROOT
BRANCH   5   6
HETATM    6  C9  UNL     1     -34.226   6.252   4.764  1.00 20.00    -0.019 C 
HETATM    7  C7  UNL     1     -34.770   4.901   5.232  1.00 20.00     0.010 C 
HETATM    8  C8  UNL     1     -33.635   7.024   5.945  1.00 20.00     0.010 C 
ENDBRANCH   5   6
BRANCH   4   9
HETATM    9  C1  UNL     1     -32.903   8.012   0.687  1.00 20.00     0.235 C 
HETATM   10  O10 UNL     1     -32.276   8.743  -0.073  1.00 20.00    -0.306 OA
ENDBRANCH   4   9
TORSDOF 2
