REMARK  1 active torsions:
REMARK  status: ('A' for Active; 'I' for Inactive)
REMARK    1  A    between atoms: C1_1  and  C3_3 
ROOT
HETATM    1  C1  UNL     1     -33.549   6.459   4.403  1.00 20.00     0.163 C 
HETATM    2  C2  UNL     1     -34.514   5.729   4.987  1.00 20.00    -0.045 C 
HETATM    3  C4  UNL     1     -34.794   5.666   6.463  1.00 20.00     0.046 C 
HETATM    4  C5  UNL     1     -35.446   4.888   4.154  1.00 20.00     0.046 C 
HETATM    5  F8  UNL     1     -32.723   7.214   5.162  1.00 20.00    -0.202 F 
ENDROOT
BRANCH   1   6
HETATM    6  C3  UNL     1     -33.244   6.544   2.948  1.00 20.00     0.183 C 
HETATM    7  C6  UNL     1     -32.664   7.844   2.456  1.00 20.00     0.099 C 
HETATM    8  O7  UNL     1     -33.492   5.627   2.171  1.00 20.00    -0.290 OA
ENDBRANCH   1   6
TORSDOF 1
