REMARK  1 active torsions:
REMARK  status: ('A' for Active; 'I' for Inactive)
REMARK    1  A    between atoms: C3_3  and  C6_6 
ROOT
HETATM    1  C1  UNL     1     -34.339   5.431   6.515  1.00 20.00    -0.030 A 
HETATM    2  C2  UNL     1     -34.877   4.847   5.432  1.00 20.00    -0.025 A 
HETATM    3  C4  UNL     1     -33.679   6.726   6.114  1.00 20.00     0.033 A 
HETATM    4  C5  UNL     1     -34.692   5.614   4.191  1.00 20.00     0.024 A 
HETATM    5  C6  UNL     1     -33.309   5.861   3.642  1.00 20.00     0.068 A 
HETATM    6  C7  UNL     1     -33.912   6.842   4.620  1.00 20.00     0.009 A 
ENDROOT
BRANCH   5   7
HETATM    7  C3  UNL     1     -33.164   6.260   2.236  1.00 20.00     0.128 C 
HETATM    8  C8  UNL     1     -32.412   7.535   1.968  1.00 20.00     0.091 C 
HETATM    9  O9  UNL     1     -33.632   5.582   1.322  1.00 20.00    -0.298 OA
ENDBRANCH   5   7
TORSDOF 1
