REMARK  2 active torsions:
REMARK  status: ('A' for Active; 'I' for Inactive)
REMARK    1  A    between atoms: C1_1  and  C5_5 
REMARK    2  A    between atoms: C5_5  and  C6_6 
ROOT
HETATM    1  C2  UNL     1     -33.612   4.449   2.134  1.00 20.00     0.003 C 
HETATM    2  C3  UNL     1     -32.762   4.651   3.401  1.00 20.00     0.029 C 
HETATM    3  C4  UNL     1     -34.670   5.376   2.755  1.00 20.00     0.029 C 
HETATM    4  C5  UNL     1     -33.560   5.963   3.683  1.00 20.00     0.149 C 
ENDROOT
BRANCH   4   5
HETATM    5  C1  UNL     1     -33.979   6.179   5.164  1.00 20.00     0.316 C 
HETATM    6  O7  UNL     1     -34.693   5.424   5.807  1.00 20.00    -0.259 OA
HETATM    7  F8  UNL     1     -33.492   7.254   5.798  1.00 20.00    -0.163 F 
ENDBRANCH   4   5
BRANCH   4   8
HETATM    8  C6  UNL     1     -32.891   7.217   3.115  1.00 20.00     0.404 C 
HETATM    9  F9  UNL     1     -31.795   7.512   3.828  1.00 20.00    -0.170 F 
HETATM   10  F10 UNL     1     -32.539   7.007   1.839  1.00 20.00    -0.170 F 
HETATM   11  F11 UNL     1     -33.741   8.252   3.170  1.00 20.00    -0.170 F 
ENDBRANCH   4   8
TORSDOF 2
