REMARK  1 active torsions:
REMARK  status: ('A' for Active; 'I' for Inactive)
REMARK    1  A    between atoms: C4_4  and  C5_5 
ROOT
HETATM    1  C1  UNL     1     -34.426   5.136   3.435  1.00 20.00    -0.022 C 
HETATM    2  C2  UNL     1     -33.211   4.982   2.874  1.00 20.00    -0.021 C 
HETATM    3  C3  UNL     1     -34.481   7.489   2.686  1.00 20.00    -0.006 C 
HETATM    4  C4  UNL     1     -33.264   7.327   2.133  1.00 20.00     0.009 C 
HETATM    5  C6  UNL     1     -33.632   6.922   4.923  1.00 20.00     0.013 C 
HETATM    6  C7  UNL     1     -32.222   6.740   4.271  1.00 20.00     0.014 C 
HETATM    7  C8  UNL     1     -34.727   6.566   3.877  1.00 20.00     0.031 C 
HETATM    8  C9  UNL     1     -32.396   6.270   2.799  1.00 20.00     0.045 C 
ENDROOT
BRANCH   4   9
HETATM    9  C5  UNL     1     -32.820   8.115   0.995  1.00 20.00     0.248 C 
HETATM   10  O10 UNL     1     -33.251   9.269   0.848  1.00 20.00    -0.274 OA
HETATM   11 CL11 UNL     1     -31.683   7.364  -0.112  1.00 20.00    -0.039 Cl
ENDBRANCH   4   9
TORSDOF 1
