REMARK  1 active torsions:
REMARK  status: ('A' for Active; 'I' for Inactive)
REMARK    1  A    between atoms: C4_4  and  C5_5 
ROOT
HETATM    1  C1  UNL     1     -34.605   6.104   6.056  1.00 20.00     0.014 C 
HETATM    2  C2  UNL     1     -33.545   6.705   5.142  1.00 20.00     0.062 C 
HETATM    3  C3  UNL     1     -34.558   4.600   5.842  1.00 20.00     0.077 C 
HETATM    4  C4  UNL     1     -33.803   6.120   3.759  1.00 20.00     0.209 C 
HETATM    5  F6  UNL     1     -34.871   6.760   3.208  1.00 20.00    -0.225 F 
HETATM    6  S9  UNL     1     -34.251   4.384   4.066  1.00 20.00    -0.121 SA
ENDROOT
BRANCH   4   7
HETATM    7  C5  UNL     1     -32.622   6.253   2.818  1.00 20.00     0.403 C 
HETATM    8  F7  UNL     1     -32.346   7.564   2.633  1.00 20.00    -0.210 F 
HETATM    9  F8  UNL     1     -32.955   5.740   1.611  1.00 20.00    -0.210 F 
ENDBRANCH   4   7
TORSDOF 1
