REMARK  0 active torsions:
REMARK  status: ('A' for Active; 'I' for Inactive)
ROOT
HETATM    1  C1  UNL     1     -34.374   4.440   4.318  1.00 20.00     0.013 A 
HETATM    2  C2  UNL     1     -34.610   4.579   5.631  1.00 20.00    -0.025 A 
HETATM    3  C3  UNL     1     -33.743   5.502   3.605  1.00 20.00     0.035 A 
HETATM    4  C4  UNL     1     -33.360   6.654   4.167  1.00 20.00    -0.046 A 
HETATM    5  C5  UNL     1     -33.391   5.565   2.175  1.00 20.00     0.254 A 
HETATM    6  C6  UNL     1     -34.239   5.817   6.411  1.00 20.00     0.031 A 
HETATM    7  C7  UNL     1     -33.553   6.956   5.616  1.00 20.00     0.040 A 
HETATM    8  C8  UNL     1     -32.726   7.590   3.201  1.00 20.00     0.161 A 
HETATM    9  C9  UNL     1     -32.300   7.272   0.707  1.00 20.00     0.153 C 
HETATM   10  N10 UNL     1     -32.796   6.809   1.985  1.00 20.00    -0.348 N 
HETATM   11  O11 UNL     1     -33.600   4.678   1.365  1.00 20.00    -0.267 OA
ENDROOT
TORSDOF 0
