REMARK  1 active torsions:
REMARK  status: ('A' for Active; 'I' for Inactive)
REMARK    1  A    between atoms: C3_3  and  C7_7 
ROOT
HETATM    1  C1  UNL     1     -32.505   5.589   2.130  1.00 20.00    -0.020 C 
HETATM    2  C2  UNL     1     -33.458   4.824   2.691  1.00 20.00    -0.086 C 
HETATM    3  C4  UNL     1     -34.610   5.411   3.470  1.00 20.00     0.045 C 
HETATM    4  C5  UNL     1     -33.840   7.682   2.644  1.00 20.00     0.020 C 
HETATM    5  C6  UNL     1     -32.493   7.095   2.186  1.00 20.00     0.005 C 
HETATM    6  C7  UNL     1     -34.460   6.901   3.802  1.00 20.00     0.059 C 
HETATM    7  C8  UNL     1     -33.434   3.327   2.582  1.00 20.00     0.043 C 
HETATM    8  C10 UNL     1     -32.101   7.685   0.830  1.00 20.00     0.014 C 
ENDROOT
BRANCH   6   9
HETATM    9  C3  UNL     1     -33.653   7.097   5.054  1.00 20.00     0.127 C 
HETATM   10  C9  UNL     1     -34.168   6.435   6.303  1.00 20.00     0.091 C 
HETATM   11  O11 UNL     1     -32.619   7.765   5.056  1.00 20.00    -0.298 OA
ENDBRANCH   6   9
TORSDOF 1
