REMARK  2 active torsions:
REMARK  status: ('A' for Active; 'I' for Inactive)
REMARK    1  A    between atoms: C1_1  and  C5_5 
REMARK    2  A    between atoms: C1_1  and  O10_10 
ROOT
HETATM    1  C2  UNL     1     -34.497   4.735   4.595  1.00 20.00     0.015 C 
HETATM    2  C3  UNL     1     -33.492   4.496   5.733  1.00 20.00     0.006 C 
HETATM    3  C4  UNL     1     -34.141   6.918   6.525  1.00 20.00     0.011 A 
HETATM    4  C5  UNL     1     -34.129   6.115   4.018  1.00 20.00     0.090 C 
HETATM    5  C6  UNL     1     -33.111   5.865   6.214  1.00 20.00    -0.009 A 
HETATM    6  C7  UNL     1     -33.493   6.855   5.166  1.00 20.00     0.004 A 
ENDROOT
BRANCH   4   7
HETATM    7  C1  UNL     1     -33.193   5.968   2.858  1.00 20.00     0.263 C 
HETATM    8  O9  UNL     1     -32.802   4.892   2.425  1.00 20.00    -0.265 OA
BRANCH   7   9
HETATM    9  O10 UNL     1     -32.861   7.201   2.381  1.00 20.00    -0.326 OA
HETATM   10  C8  UNL     1     -31.965   7.208   1.264  1.00 20.00     0.213 C 
ENDBRANCH   7   9
ENDBRANCH   4   7
TORSDOF 2
