REMARK  1 active torsions:
REMARK  status: ('A' for Active; 'I' for Inactive)
REMARK    1  A    between atoms: C1_1  and  C2_2 
ROOT
HETATM    1  C2  UNL     1     -33.992   6.787   3.389  1.00 20.00     0.154 A 
HETATM    2  C3  UNL     1     -33.461   5.772   2.391  1.00 20.00     0.073 A 
HETATM    3  C4  UNL     1     -32.793   7.089   2.557  1.00 20.00     0.259 A 
HETATM    4  C5  UNL     1     -32.770   4.523   2.822  1.00 20.00     0.017 C 
HETATM    5  F7  UNL     1     -32.861   8.034   1.557  1.00 20.00    -0.205 F 
HETATM    6  F8  UNL     1     -31.542   7.186   3.125  1.00 20.00    -0.205 F 
ENDROOT
BRANCH   1   7
HETATM    7  C1  UNL     1     -33.842   6.570   4.832  1.00 20.00     0.229 C 
HETATM    8  O6  UNL     1     -32.898   7.040   5.460  1.00 20.00    -0.279 OA
HETATM    9 CL9  UNL     1     -35.127   5.599   5.484  1.00 20.00    -0.043 Cl
ENDBRANCH   1   7
TORSDOF 1
