REMARK  3 active torsions:
REMARK  status: ('A' for Active; 'I' for Inactive)
REMARK    1  A    between atoms: C1_1  and  C4_4 
REMARK    2  A    between atoms: C2_2  and  C8_8 
REMARK    3  A    between atoms: C8_8  and  O10_10 
ROOT
HETATM    1  C1  UNL     1     -33.296   7.305   2.475  1.00 20.00    -0.069 C 
HETATM    2  C2  UNL     1     -33.671   6.502   3.287  1.00 20.00    -0.066 C 
ENDROOT
BRANCH   2   3
HETATM    3  C8  UNL     1     -34.129   5.518   4.283  1.00 20.00     0.116 C 
HETATM    4  C5  UNL     1     -34.028   4.099   3.724  1.00 20.00     0.060 C 
HETATM    5  C6  UNL     1     -35.564   5.825   4.709  1.00 20.00     0.060 C 
BRANCH   3   6
HETATM    6  O10 UNL     1     -33.310   5.606   5.450  1.00 20.00    -0.373 OA
HETATM    7  C7  UNL     1     -33.376   6.900   6.028  1.00 20.00     0.204 C 
ENDBRANCH   3   6
ENDBRANCH   2   3
BRANCH   1   8
HETATM    8  C4  UNL     1     -32.841   8.281   1.487  1.00 20.00     0.224 A 
HETATM    9  C3  UNL     1     -33.469   8.279   0.139  1.00 20.00     0.214 A 
HETATM   10  O9  UNL     1     -32.201   7.657   0.382  1.00 20.00    -0.368 OA
ENDBRANCH   1   8
TORSDOF 3
