REMARK  2 active torsions:
REMARK  status: ('A' for Active; 'I' for Inactive)
REMARK    1  A    between atoms: C1_1  and  C2_2 
REMARK    2  A    between atoms: N7_7  and  O8_8 
ROOT
HETATM    1  C2  UNL     1     -33.131   6.428   3.764  1.00 20.00     0.115 A 
HETATM    2  C3  UNL     1     -34.181   6.659   4.851  1.00 20.00     0.033 A 
HETATM    3  C4  UNL     1     -34.426   5.692   3.741  1.00 20.00     0.260 A 
HETATM    4  C5  UNL     1     -34.980   7.936   4.861  1.00 20.00     0.022 C 
HETATM    5  C6  UNL     1     -33.891   6.106   6.221  1.00 20.00     0.022 C 
HETATM    6  F9  UNL     1     -34.453   4.335   3.977  1.00 20.00    -0.205 F 
HETATM    7  F10 UNL     1     -35.366   5.950   2.768  1.00 20.00    -0.205 F 
ENDROOT
BRANCH   1   8
HETATM    8  C1  UNL     1     -32.858   7.457   2.754  1.00 20.00     0.130 C 
HETATM    9  N7  UNL     1     -32.964   7.192   1.496  1.00 20.00    -0.152 NA
BRANCH   9  10
HETATM   10  O8  UNL     1     -32.649   8.344   0.772  1.00 20.00    -0.267 OA
HETATM   11  H19 UNL     1     -32.760   8.036  -0.144  1.00 20.00     0.247 HD
ENDBRANCH   9  10
ENDBRANCH   1   8
TORSDOF 2
