REMARK  1 active torsions:
REMARK  status: ('A' for Active; 'I' for Inactive)
REMARK    1  A    between atoms: C3_3  and  C7_7 
ROOT
HETATM    1  C1  UNL     1     -34.543   5.058   5.174  1.00 20.00    -0.023 C 
HETATM    2  C2  UNL     1     -33.856   5.131   4.019  1.00 20.00    -0.075 C 
HETATM    3  C4  UNL     1     -34.591   6.162   6.188  1.00 20.00     0.027 C 
HETATM    4  C5  UNL     1     -33.481   7.191   5.991  1.00 20.00     0.005 C 
HETATM    5  C6  UNL     1     -33.373   7.596   4.527  1.00 20.00     0.018 C 
HETATM    6  C7  UNL     1     -33.106   6.385   3.619  1.00 20.00     0.100 C 
HETATM    7  C8  UNL     1     -33.759   3.938   3.107  1.00 20.00     0.044 C 
ENDROOT
BRANCH   6   8
HETATM    8  C3  UNL     1     -33.500   6.754   2.219  1.00 20.00     0.227 C 
HETATM    9  O9  UNL     1     -34.319   6.096   1.584  1.00 20.00    -0.279 OA
HETATM   10 CL10 UNL     1     -32.670   8.175   1.660  1.00 20.00    -0.043 Cl
ENDBRANCH   6   8
TORSDOF 1
