REMARK  0 active torsions:
REMARK  status: ('A' for Active; 'I' for Inactive)
ROOT
HETATM    1  C1  UNL     1     -32.976   4.483   2.739  1.00 20.00     0.013 C 
HETATM    2  C2  UNL     1     -33.972   3.953   3.796  1.00 20.00     0.035 C 
HETATM    3  C3  UNL     1     -33.014   6.004   2.461  1.00 20.00     0.074 C 
HETATM    4  C4  UNL     1     -33.475   7.177   5.093  1.00 20.00     0.108 C 
HETATM    5  C5  UNL     1     -33.781   4.721   5.043  1.00 20.00     0.152 A 
HETATM    6  C6  UNL     1     -34.431   6.074   4.926  1.00 20.00     0.160 A 
HETATM    7  O7  UNL     1     -34.806   5.141   5.934  1.00 20.00    -0.375 OA
HETATM    8  S8  UNL     1     -32.222   7.103   3.731  1.00 20.00    -0.166 SA
ENDROOT
TORSDOF 0
