REMARK  1 active torsions:
REMARK  status: ('A' for Active; 'I' for Inactive)
REMARK    1  A    between atoms: C1_1  and  C10_10 
ROOT
HETATM    1  C1  UNL     1     -34.018   5.804   4.399  1.00 20.00     0.025 C 
HETATM    2  C2  UNL     1     -33.843   6.697   3.431  1.00 20.00    -0.038 C 
HETATM    3  C3  UNL     1     -34.016   4.500   3.707  1.00 20.00     0.290 C 
HETATM    4  C4  UNL     1     -33.368   8.104   3.416  1.00 20.00     0.038 C 
HETATM    5  C5  UNL     1     -32.629   8.165   2.066  1.00 20.00     0.007 C 
HETATM    6  C6  UNL     1     -32.508   6.712   1.577  1.00 20.00     0.037 C 
HETATM    7  C7  UNL     1     -33.781   6.075   2.100  1.00 20.00     0.162 C 
HETATM    8  O11 UNL     1     -34.180   3.418   4.246  1.00 20.00    -0.260 OA
HETATM    9  O12 UNL     1     -33.734   4.688   2.376  1.00 20.00    -0.308 OA
ENDROOT
BRANCH   1  10
HETATM   10  C10 UNL     1     -34.007   5.950   5.870  1.00 20.00     0.017 C 
HETATM   11  C8  UNL     1     -33.708   7.398   6.276  1.00 20.00     0.015 C 
HETATM   12  C9  UNL     1     -35.333   5.492   6.490  1.00 20.00     0.015 C 
ENDBRANCH   1  10
TORSDOF 1
