REMARK  3 active torsions:
REMARK  status: ('A' for Active; 'I' for Inactive)
REMARK    1  A    between atoms: C2_2  and  C6_6 
REMARK    2  A    between atoms: C3_3  and  C7_7 
REMARK    3  A    between atoms: C7_7  and  C8_8 
ROOT
HETATM    1  C1  UNL     1     -33.206   5.055   2.929  1.00 20.00     0.100 C 
HETATM    2  C2  UNL     1     -33.147   7.587   2.568  1.00 20.00     0.172 A 
HETATM    3  C3  UNL     1     -33.601   6.368   3.344  1.00 20.00     0.175 A 
HETATM    4  N9  UNL     1     -32.886   3.991   2.593  1.00 20.00    -0.194 NA
HETATM    5  O10 UNL     1     -32.494   7.178   3.775  1.00 20.00    -0.353 OA
ENDROOT
BRANCH   3   6
HETATM    6  C7  UNL     1     -34.798   6.474   4.234  1.00 20.00     0.056 C 
BRANCH   6   7
HETATM    7  C8  UNL     1     -34.570   5.813   5.602  1.00 20.00    -0.000 C 
HETATM    8  C5  UNL     1     -33.391   6.418   6.347  1.00 20.00     0.005 C 
ENDBRANCH   6   7
ENDBRANCH   3   6
BRANCH   2   9
HETATM    9  C6  UNL     1     -32.294   7.514   1.351  1.00 20.00     0.032 C 
HETATM   10  C4  UNL     1     -32.660   8.542   0.310  1.00 20.00     0.007 C 
ENDBRANCH   2   9
TORSDOF 3
