REMARK  2 active torsions:
REMARK  status: ('A' for Active; 'I' for Inactive)
REMARK    1  A    between atoms: C3_3  and  C5_5 
REMARK    2  A    between atoms: C3_3  and  O9_9 
ROOT
HETATM    1  C1  UNL     1     -34.195   6.106   6.300  1.00 20.00    -0.002 A 
HETATM    2  C2  UNL     1     -33.979   6.960   5.303  1.00 20.00     0.013 A 
HETATM    3  C4  UNL     1     -35.017   4.971   5.818  1.00 20.00     0.196 A 
HETATM    4  C5  UNL     1     -34.640   6.468   4.073  1.00 20.00     0.244 A 
HETATM    5  O8  UNL     1     -35.291   5.242   4.429  1.00 20.00    -0.368 OA
ENDROOT
BRANCH   4   6
HETATM    6  C3  UNL     1     -33.603   6.153   3.045  1.00 20.00     0.291 C 
HETATM    7  O7  UNL     1     -33.386   5.030   2.612  1.00 20.00    -0.262 OA
BRANCH   6   8
HETATM    8  O9  UNL     1     -32.958   7.299   2.683  1.00 20.00    -0.324 OA
HETATM    9  C6  UNL     1     -31.932   7.142   1.699  1.00 20.00     0.213 C 
ENDBRANCH   6   8
ENDBRANCH   4   6
TORSDOF 2
