REMARK  1 active torsions:
REMARK  status: ('A' for Active; 'I' for Inactive)
REMARK    1  A    between atoms: C8_8  and  C11_11 
ROOT
HETATM    1  C1  UNL     1     -33.292   5.052   2.875  1.00 20.00     0.071 C 
HETATM    2  C2  UNL     1     -31.504   7.792   1.830  1.00 20.00    -0.004 A 
HETATM    3  C3  UNL     1     -32.820   8.062   1.289  1.00 20.00    -0.004 A 
HETATM    4  C4  UNL     1     -31.361   7.366   3.098  1.00 20.00    -0.020 A 
HETATM    5  C5  UNL     1     -33.918   7.890   2.047  1.00 20.00    -0.020 A 
HETATM    6  C6  UNL     1     -32.493   7.187   4.034  1.00 20.00     0.041 A 
HETATM    7  C7  UNL     1     -33.877   7.471   3.465  1.00 20.00     0.041 A 
HETATM    8  C8  UNL     1     -33.500   6.061   3.886  1.00 20.00     0.067 A 
HETATM    9  N12 UNL     1     -33.123   4.241   2.062  1.00 20.00    -0.196 NA
ENDROOT
BRANCH   8  10
HETATM   10  C11 UNL     1     -34.129   5.530   5.150  1.00 20.00     0.001 C 
HETATM   11  C9  UNL     1     -33.269   4.424   5.775  1.00 20.00     0.011 C 
HETATM   12  C10 UNL     1     -34.357   6.652   6.170  1.00 20.00     0.011 C 
ENDBRANCH   8  10
TORSDOF 1
