REMARK  0 active torsions:
REMARK  status: ('A' for Active; 'I' for Inactive)
ROOT
HETATM    1  C1  UNL     1     -34.029   4.251   3.269  1.00 20.00     0.088 C 
HETATM    2  C2  UNL     1     -33.169   6.258   2.251  1.00 20.00    -0.041 C 
HETATM    3  C3  UNL     1     -32.919   6.932   3.528  1.00 20.00    -0.050 C 
HETATM    4  C4  UNL     1     -33.681   5.022   2.133  1.00 20.00     0.101 C 
HETATM    5  C5  UNL     1     -33.557   6.654   4.677  1.00 20.00    -0.081 C 
HETATM    6  C6  UNL     1     -32.788   7.049   1.015  1.00 20.00     0.044 C 
HETATM    7  C7  UNL     1     -31.904   8.046   3.454  1.00 20.00     0.040 C 
HETATM    8  C8  UNL     1     -32.282   9.112   2.419  1.00 20.00     0.009 C 
HETATM    9  C9  UNL     1     -33.051   8.552   1.206  1.00 20.00    -0.014 C 
HETATM   10  C10 UNL     1     -33.250   7.385   5.949  1.00 20.00     0.043 C 
HETATM   11  C11 UNL     1     -34.614   5.594   4.759  1.00 20.00     0.043 C 
HETATM   12  C12 UNL     1     -32.720   9.337  -0.062  1.00 20.00     0.010 C 
HETATM   13  N13 UNL     1     -34.318   3.613   4.194  1.00 20.00    -0.192 NA
ENDROOT
TORSDOF 0
