REMARK  1 active torsions:
REMARK  status: ('A' for Active; 'I' for Inactive)
REMARK    1  A    between atoms: C2_2  and  C6_6 
ROOT
HETATM    1  C3  UNL     1     -34.061   6.371   5.768  1.00 20.00     0.003 C 
HETATM    2  C4  UNL     1     -33.529   6.954   4.443  1.00 20.00     0.011 C 
HETATM    3  C5  UNL     1     -34.393   4.878   5.727  1.00 20.00     0.034 C 
HETATM    4  C6  UNL     1     -33.385   5.928   3.302  1.00 20.00     0.039 C 
HETATM    5  C7  UNL     1     -35.176   4.555   4.497  1.00 20.00     0.151 A 
HETATM    6  C8  UNL     1     -34.648   5.113   3.207  1.00 20.00     0.158 A 
HETATM    7  O9  UNL     1     -34.511   3.727   3.538  1.00 20.00    -0.375 OA
ENDROOT
BRANCH   4   8
HETATM    8  C2  UNL     1     -33.007   6.617   2.027  1.00 20.00    -0.030 C 
HETATM    9  C1  UNL     1     -32.870   7.941   1.903  1.00 20.00     0.007 C 
ENDBRANCH   4   8
TORSDOF 1
