REMARK  1 active torsions:
REMARK  status: ('A' for Active; 'I' for Inactive)
REMARK    1  A    between atoms: C6_6  and  C8_8 
ROOT
HETATM    1  C1  UNL     1     -34.477   4.056   4.434  1.00 20.00     0.061 C 
HETATM    2  C2  UNL     1     -33.198   7.155   4.400  1.00 20.00     0.066 C 
HETATM    3  C3  UNL     1     -33.735   4.171   3.078  1.00 20.00     0.170 C 
HETATM    4  C4  UNL     1     -33.844   5.011   5.368  1.00 20.00     0.153 A 
HETATM    5  C5  UNL     1     -34.318   6.402   4.995  1.00 20.00     0.153 A 
HETATM    6  C6  UNL     1     -32.637   6.351   3.186  1.00 20.00     0.123 C 
HETATM    7  O9  UNL     1     -33.645   5.518   2.562  1.00 20.00    -0.386 OA
HETATM    8  O10 UNL     1     -34.454   5.881   6.304  1.00 20.00    -0.375 OA
ENDROOT
BRANCH   6   9
HETATM    9  C8  UNL     1     -32.112   7.303   2.117  1.00 20.00     0.027 C 
HETATM   10  C7  UNL     1     -33.186   8.206   1.603  1.00 20.00     0.007 C 
ENDBRANCH   6   9
TORSDOF 1
