REMARK  1 active torsions:
REMARK  status: ('A' for Active; 'I' for Inactive)
REMARK    1  A    between atoms: C3_3  and  C7_7 
ROOT
HETATM    1  C1  UNL     1     -33.136   7.171   2.357  1.00 20.00     0.255 C 
HETATM    2  C2  UNL     1     -33.375   5.090   3.084  1.00 20.00     0.157 C 
HETATM    3  C3  UNL     1     -33.073   6.004   4.256  1.00 20.00     0.164 C 
HETATM    4  C4  UNL     1     -34.456   4.049   3.296  1.00 20.00     0.043 C 
HETATM    5  O8  UNL     1     -33.754   6.001   2.054  1.00 20.00    -0.314 OA
HETATM    6  O9  UNL     1     -32.587   7.178   3.600  1.00 20.00    -0.313 OA
HETATM    7  S10 UNL     1     -33.063   8.450   1.328  1.00 20.00    -0.025 SA
ENDROOT
BRANCH   3   8
HETATM    8  C7  UNL     1     -34.257   6.395   5.132  1.00 20.00     0.010 C 
HETATM    9  C5  UNL     1     -34.621   5.262   6.096  1.00 20.00     0.012 C 
HETATM   10  C6  UNL     1     -33.960   7.678   5.913  1.00 20.00     0.012 C 
ENDBRANCH   3   8
TORSDOF 1
