REMARK  1 active torsions:
REMARK  status: ('A' for Active; 'I' for Inactive)
REMARK    1  A    between atoms: C4_4  and  C8_8 
ROOT
HETATM    1  C1  UNL     1     -34.844   4.962   4.994  1.00 20.00     0.302 C 
HETATM    2  C2  UNL     1     -33.972   4.153   4.029  1.00 20.00     0.302 C 
HETATM    3  C3  UNL     1     -34.201   6.989   3.872  1.00 20.00     0.307 C 
HETATM    4  C4  UNL     1     -33.317   6.192   2.884  1.00 20.00     0.250 C 
HETATM    5  C6  UNL     1     -33.202   6.433   6.018  1.00 20.00     0.310 C 
HETATM    6  C7  UNL     1     -33.024   3.998   1.833  1.00 20.00     0.310 C 
HETATM    7  N9  UNL     1     -34.393   6.344   5.175  1.00 20.00     0.088 N 
HETATM    8  N10 UNL     1     -33.846   4.821   2.724  1.00 20.00     0.092 N 
ENDROOT
BRANCH   4   9
HETATM    9  C8  UNL     1     -33.270   6.959   1.555  1.00 20.00     0.033 C 
HETATM   10  C5  UNL     1     -32.761   8.347   1.745  1.00 20.00     0.007 C 
ENDBRANCH   4   9
TORSDOF 1
