REMARK  3 active torsions:
REMARK  status: ('A' for Active; 'I' for Inactive)
REMARK    1  A    between atoms: C1_1  and  C9_9 
REMARK    2  A    between atoms: C1_1  and  O11_11 
REMARK    3  A    between atoms: C8_8  and  C9_9 
ROOT
HETATM    1  C2  UNL     1     -33.956   5.940   6.223  1.00 20.00     0.005 C 
HETATM    2  C3  UNL     1     -34.248   4.472   5.867  1.00 20.00     0.005 C 
HETATM    3  C4  UNL     1     -35.522   6.685   4.434  1.00 20.00     0.005 C 
HETATM    4  C5  UNL     1     -35.815   5.219   4.079  1.00 20.00     0.005 C 
HETATM    5  C6  UNL     1     -34.041   6.648   4.855  1.00 20.00    -0.010 C 
HETATM    6  C7  UNL     1     -34.465   4.525   4.341  1.00 20.00    -0.010 C 
HETATM    7  C8  UNL     1     -33.429   5.584   3.932  1.00 20.00     0.003 C 
ENDROOT
BRANCH   7   8
HETATM    8  C9  UNL     1     -33.366   5.930   2.452  1.00 20.00     0.115 C 
BRANCH   8   9
HETATM    9  C1  UNL     1     -32.426   7.076   2.183  1.00 20.00     0.139 C 
HETATM   10  O10 UNL     1     -31.423   7.354   2.822  1.00 20.00    -0.650 OA
BRANCH   9  11
HETATM   11  O11 UNL     1     -32.854   7.782   1.104  1.00 20.00    -0.776 OA
HETATM   12  H25 UNL     1     -32.261   8.537   0.903  1.00 20.00     0.167 HD
ENDBRANCH   9  11
ENDBRANCH   8   9
ENDBRANCH   7   8
TORSDOF 3
