REMARK  1 active torsions:
REMARK  status: ('A' for Active; 'I' for Inactive)
REMARK    1  A    between atoms: C4_4  and  C7_7 
ROOT
HETATM    1  C1  UNL     1     -32.799   7.747   1.046  1.00 20.00     0.075 C 
HETATM    2  C2  UNL     1     -31.766   7.220   3.247  1.00 20.00     0.105 C 
HETATM    3  C3  UNL     1     -32.480   6.685   2.013  1.00 20.00     0.164 C 
HETATM    4  C4  UNL     1     -34.287   6.770   4.093  1.00 20.00     0.113 C 
HETATM    5  N8  UNL     1     -33.051   8.585   0.284  1.00 20.00    -0.196 NA
HETATM    6  S9  UNL     1     -32.994   8.028   4.307  1.00 20.00    -0.151 SA
HETATM    7  S10 UNL     1     -33.986   5.819   2.564  1.00 20.00    -0.133 SA
ENDROOT
BRANCH   4   8
HETATM    8  C7  UNL     1     -34.299   5.826   5.288  1.00 20.00     0.001 C 
HETATM    9  C5  UNL     1     -34.565   6.594   6.582  1.00 20.00     0.011 C 
HETATM   10  C6  UNL     1     -35.341   4.724   5.096  1.00 20.00     0.011 C 
ENDBRANCH   4   8
TORSDOF 1
