REMARK  1 active torsions:
REMARK  status: ('A' for Active; 'I' for Inactive)
REMARK    1  A    between atoms: C6_6  and  C8_8 
ROOT
HETATM    1  C1  UNL     1     -34.183   4.195   3.251  1.00 20.00     0.061 C 
HETATM    2  C2  UNL     1     -33.290   7.003   4.430  1.00 20.00     0.066 C 
HETATM    3  C3  UNL     1     -32.784   4.627   2.829  1.00 20.00     0.170 C 
HETATM    4  C4  UNL     1     -34.504   4.645   4.642  1.00 20.00     0.153 A 
HETATM    5  C5  UNL     1     -34.086   5.988   5.193  1.00 20.00     0.153 A 
HETATM    6  C6  UNL     1     -33.469   6.968   2.908  1.00 20.00     0.123 C 
HETATM    7  O9  UNL     1     -32.715   5.935   2.270  1.00 20.00    -0.386 OA
HETATM    8  O10 UNL     1     -35.416   5.755   4.716  1.00 20.00    -0.375 OA
ENDROOT
BRANCH   6   9
HETATM    9  C8  UNL     1     -32.986   8.280   2.291  1.00 20.00     0.027 C 
HETATM   10  C7  UNL     1     -33.117   8.273   0.803  1.00 20.00     0.007 C 
ENDBRANCH   6   9
TORSDOF 1
