REMARK  1 active torsions:
REMARK  status: ('A' for Active; 'I' for Inactive)
REMARK    1  A    between atoms: C7_7  and  C10_10 
ROOT
HETATM    1  C1  UNL     1     -33.246   4.253   5.536  1.00 20.00    -0.018 C 
HETATM    2  C2  UNL     1     -33.071   5.490   6.032  1.00 20.00    -0.024 C 
HETATM    3  C3  UNL     1     -33.836   5.145   3.407  1.00 20.00     0.139 C 
HETATM    4  C4  UNL     1     -35.241   5.393   5.237  1.00 20.00     0.025 C 
HETATM    5  C5  UNL     1     -34.389   4.315   4.560  1.00 20.00     0.078 C 
HETATM    6  C6  UNL     1     -34.083   6.399   5.360  1.00 20.00     0.020 C 
HETATM    7  C7  UNL     1     -33.715   6.607   3.862  1.00 20.00     0.067 C 
HETATM    8  O11 UNL     1     -33.496   4.707   2.319  1.00 20.00    -0.297 OA
ENDROOT
BRANCH   7   9
HETATM    9  C10 UNL     1     -32.345   7.203   3.609  1.00 20.00    -0.011 C 
HETATM   10  C8  UNL     1     -32.183   7.602   2.140  1.00 20.00     0.010 C 
HETATM   11  C9  UNL     1     -32.098   8.413   4.515  1.00 20.00     0.010 C 
ENDBRANCH   7   9
TORSDOF 1
