REMARK  0 active torsions:
REMARK  status: ('A' for Active; 'I' for Inactive)
ROOT
HETATM    1  C1  UNL     1     -36.338   5.054   3.966  1.00 20.00     0.100 C 
HETATM    2  C2  UNL     1     -34.978   6.491   2.554  1.00 20.00     0.067 A 
HETATM    3  C3  UNL     1     -35.261   5.984   3.817  1.00 20.00     0.056 A 
HETATM    4  C4  UNL     1     -34.499   6.386   4.908  1.00 20.00    -0.001 A 
HETATM    5  C5  UNL     1     -33.929   7.389   2.435  1.00 20.00     0.129 A 
HETATM    6  C6  UNL     1     -33.472   7.289   4.684  1.00 20.00     0.135 A 
HETATM    7  C7  UNL     1     -34.780   5.860   6.278  1.00 20.00     0.053 C 
HETATM    8  N8  UNL     1     -37.212   4.299   4.086  1.00 20.00    -0.191 NA
HETATM    9  N9  UNL     1     -33.166   7.803   3.472  1.00 20.00    -0.224 NA
HETATM   10 CL10 UNL     1     -33.507   8.065   0.916  1.00 20.00    -0.062 Cl
HETATM   11 CL11 UNL     1     -32.456   7.863   5.949  1.00 20.00    -0.062 Cl
ENDROOT
TORSDOF 0
