REMARK  1 active torsions:
REMARK  status: ('A' for Active; 'I' for Inactive)
REMARK    1  A    between atoms: C3_3  and  C6_6 
ROOT
HETATM    1  C1  UNL     1     -35.641   5.100   5.383  1.00 20.00     0.134 C 
HETATM    2  C2  UNL     1     -33.769   6.480   5.972  1.00 20.00     0.137 C 
HETATM    3  C3  UNL     1     -33.359   6.050   4.571  1.00 20.00     0.075 C 
HETATM    4  N7  UNL     1     -34.876   5.651   6.384  1.00 20.00    -0.374 N 
HETATM    5  S8  UNL     1     -37.023   4.214   5.626  1.00 20.00    -0.053 SA
HETATM    6  S9  UNL     1     -34.925   5.481   3.826  1.00 20.00    -0.094 SA
HETATM    7  H20 UNL     1     -35.137   5.560   7.361  1.00 20.00     0.161 HD
ENDROOT
BRANCH   3   8
HETATM    8  C6  UNL     1     -32.726   7.168   3.763  1.00 20.00    -0.007 C 
HETATM    9  C4  UNL     1     -32.303   6.670   2.379  1.00 20.00     0.011 C 
HETATM   10  C5  UNL     1     -33.683   8.355   3.629  1.00 20.00     0.011 C 
ENDBRANCH   3   8
TORSDOF 1
