REMARK  1 active torsions:
REMARK  status: ('A' for Active; 'I' for Inactive)
REMARK    1  A    between atoms: C3_3  and  C9_9 
ROOT
HETATM    1  C1  UNL     1     -32.884   6.560   4.689  1.00 20.00     0.069 C 
HETATM    2  C2  UNL     1     -32.888   7.826   3.844  1.00 20.00     0.069 C 
HETATM    3  C3  UNL     1     -34.368   6.245   4.821  1.00 20.00     0.076 C 
HETATM    4  C4  UNL     1     -31.931   8.879   4.404  1.00 20.00     0.042 C 
HETATM    5  C5  UNL     1     -32.572   7.569   2.370  1.00 20.00     0.042 C 
HETATM    6  C6  UNL     1     -34.739   5.879   6.259  1.00 20.00     0.043 C 
HETATM    7  N10 UNL     1     -34.265   8.342   3.956  1.00 20.00    -0.187 NA
HETATM    8  N11 UNL     1     -35.047   7.506   4.472  1.00 20.00    -0.186 NA
ENDROOT
BRANCH   3   9
HETATM    9  C9  UNL     1     -34.839   5.146   3.868  1.00 20.00     0.009 C 
HETATM   10  C7  UNL     1     -34.058   3.858   4.110  1.00 20.00     0.012 C 
HETATM   11  C8  UNL     1     -36.338   4.905   4.028  1.00 20.00     0.012 C 
ENDBRANCH   3   9
TORSDOF 1
