REMARK  1 active torsions:
REMARK  status: ('A' for Active; 'I' for Inactive)
REMARK    1  A    between atoms: C3_3  and  C9_9 
ROOT
HETATM    1  C1  UNL     1     -33.943   6.863   3.865  1.00 20.00     0.178 C 
HETATM    2  C2  UNL     1     -33.199   4.520   3.089  1.00 20.00     0.087 C 
HETATM    3  C3  UNL     1     -32.459   6.912   1.980  1.00 20.00     0.185 C 
HETATM    4  C4  UNL     1     -34.008   5.339   4.124  1.00 20.00    -0.018 C 
HETATM    5  C5  UNL     1     -33.425   5.039   5.521  1.00 20.00     0.018 C 
HETATM    6  C6  UNL     1     -35.483   4.899   4.116  1.00 20.00     0.018 C 
HETATM    7  O10 UNL     1     -32.663   7.238   3.363  1.00 20.00    -0.374 OA
HETATM    8  S11 UNL     1     -33.141   5.304   1.453  1.00 20.00    -0.136 SA
ENDROOT
BRANCH   3   9
HETATM    9  C9  UNL     1     -32.999   8.028   1.094  1.00 20.00     0.017 C 
HETATM   10  C7  UNL     1     -32.362   9.368   1.462  1.00 20.00     0.013 C 
HETATM   11  C8  UNL     1     -32.760   7.712  -0.382  1.00 20.00     0.013 C 
ENDBRANCH   3   9
TORSDOF 1
