REMARK  0 active torsions:
REMARK  status: ('A' for Active; 'I' for Inactive)
ROOT
HETATM    1  C1  UNL     1     -33.635   6.729   5.318  1.00 20.00     0.136 C 
HETATM    2  C2  UNL     1     -32.598   7.687   4.793  1.00 20.00     0.080 C 
HETATM    3  C3  UNL     1     -32.204   7.040   3.471  1.00 20.00     0.017 C 
HETATM    4  C4  UNL     1     -33.323   3.882   2.977  1.00 20.00     0.002 C 
HETATM    5  C5  UNL     1     -33.456   4.398   4.402  1.00 20.00     0.018 C 
HETATM    6  C6  UNL     1     -33.145   5.114   2.088  1.00 20.00     0.010 C 
HETATM    7  C7  UNL     1     -34.127   5.766   4.248  1.00 20.00     0.024 C 
HETATM    8  C8  UNL     1     -33.485   6.342   2.957  1.00 20.00    -0.029 C 
HETATM    9  C9  UNL     1     -35.649   5.664   4.245  1.00 20.00     0.024 C 
HETATM   10  C10 UNL     1     -34.349   7.344   2.181  1.00 20.00     0.016 C 
HETATM   11  O11 UNL     1     -34.035   6.738   6.476  1.00 20.00    -0.297 OA
ENDROOT
TORSDOF 0
