REMARK  2 active torsions:
REMARK  status: ('A' for Active; 'I' for Inactive)
REMARK    1  A    between atoms: C3_3  and  C9_9 
REMARK    2  A    between atoms: C3_3  and  S10_10 
ROOT
HETATM    1  C1  UNL     1     -34.946   5.439   3.624  1.00 20.00     0.010 A 
HETATM    2  C2  UNL     1     -34.085   5.390   4.877  1.00 20.00    -0.025 A 
HETATM    3  C3  UNL     1     -34.051   6.630   3.952  1.00 20.00     0.019 A 
HETATM    4  C4  UNL     1     -34.727   4.548   2.449  1.00 20.00     0.012 C 
HETATM    5  C5  UNL     1     -34.821   5.440   6.203  1.00 20.00     0.017 C 
HETATM    6  C6  UNL     1     -32.880   4.478   4.950  1.00 20.00     0.017 C 
ENDROOT
BRANCH   3   7
HETATM    7  C9  UNL     1     -32.835   6.928   3.106  1.00 20.00    -0.003 C 
HETATM    8  C7  UNL     1     -33.192   7.839   1.926  1.00 20.00     0.011 C 
HETATM    9  C8  UNL     1     -31.722   7.567   3.943  1.00 20.00     0.011 C 
ENDBRANCH   3   7
BRANCH   3  10
HETATM   10  S10 UNL     1     -34.854   8.131   4.464  1.00 20.00    -0.171 SA
HETATM   11  H28 UNL     1     -33.749   8.875   4.641  1.00 20.00     0.102 HD
ENDBRANCH   3  10
TORSDOF 2
