REMARK  0 active torsions:
REMARK  status: ('A' for Active; 'I' for Inactive)
ROOT
HETATM    1  C1  UNL     1     -33.151   6.939   3.162  1.00 20.00     0.086 C 
HETATM    2  C2  UNL     1     -33.792   6.641   4.297  1.00 20.00    -0.064 C 
HETATM    3  C3  UNL     1     -33.274   6.038   1.999  1.00 20.00     0.283 C 
HETATM    4  C4  UNL     1     -33.690   7.394   5.590  1.00 20.00     0.035 C 
HETATM    5  C5  UNL     1     -34.436   6.506   6.587  1.00 20.00     0.005 C 
HETATM    6  C6  UNL     1     -34.423   5.110   5.964  1.00 20.00     0.016 C 
HETATM    7  C7  UNL     1     -33.915   4.309   3.592  1.00 20.00     0.192 C 
HETATM    8  C8  UNL     1     -34.576   5.372   4.462  1.00 20.00     0.002 C 
HETATM    9  C9  UNL     1     -36.047   5.577   4.067  1.00 20.00     0.022 C 
HETATM   10  O10 UNL     1     -32.944   6.412   0.879  1.00 20.00    -0.260 OA
HETATM   11  O11 UNL     1     -33.770   4.790   2.234  1.00 20.00    -0.317 OA
ENDROOT
TORSDOF 0
