REMARK  1 active torsions:
REMARK  status: ('A' for Active; 'I' for Inactive)
REMARK    1  A    between atoms: C7_7  and  N8_8 
ROOT
HETATM    1  C1  UNL     1     -33.308   5.656   6.354  1.00 20.00     0.005 C 
HETATM    2  C2  UNL     1     -33.413   6.931   5.505  1.00 20.00     0.007 C 
HETATM    3  C3  UNL     1     -35.511   5.825   5.466  1.00 20.00     0.011 C 
HETATM    4  C4  UNL     1     -34.041   4.272   4.403  1.00 20.00     0.027 C 
HETATM    5  C5  UNL     1     -34.444   4.781   5.800  1.00 20.00    -0.013 C 
HETATM    6  C6  UNL     1     -34.578   6.616   4.545  1.00 20.00     0.006 C 
HETATM    7  C7  UNL     1     -34.186   5.527   3.525  1.00 20.00     0.097 C 
ENDROOT
BRANCH   7   8
HETATM    8  N8  UNL     1     -33.010   5.810   2.719  1.00 20.00    -0.131 NA
HETATM    9 CL9  UNL     1     -32.626   4.487   1.614  1.00 20.00    -0.005 Cl
HETATM   10 CL10 UNL     1     -33.166   7.321   1.819  1.00 20.00    -0.005 Cl
ENDBRANCH   7   8
TORSDOF 1
