REMARK  2 active torsions:
REMARK  status: ('A' for Active; 'I' for Inactive)
REMARK    1  A    between atoms: C1_1  and  C2_2 
REMARK    2  A    between atoms: C1_1  and  C3_3 
ROOT
HETATM    1  C1  UNL     1     -33.496   5.246   3.086  1.00 20.00     0.280 C 
HETATM    2  O4  UNL     1     -33.409   4.142   2.548  1.00 20.00    -0.284 OA
ENDROOT
BRANCH   1   3
HETATM    3  C2  UNL     1     -32.669   6.411   2.613  1.00 20.00     0.344 C 
HETATM    4  F5  UNL     1     -32.417   7.278   3.632  1.00 20.00    -0.224 F 
HETATM    5 CL9  UNL     1     -33.565   7.260   1.347  1.00 20.00    -0.081 Cl
ENDBRANCH   1   3
BRANCH   1   6
HETATM    6  C3  UNL     1     -34.456   5.483   4.218  1.00 20.00     0.455 C 
HETATM    7  F6  UNL     1     -34.422   6.767   4.653  1.00 20.00    -0.163 F 
HETATM    8  F7  UNL     1     -34.189   4.694   5.290  1.00 20.00    -0.163 F 
HETATM    9  F8  UNL     1     -35.739   5.227   3.855  1.00 20.00    -0.163 F 
ENDBRANCH   1   6
TORSDOF 2
