REMARK  1 active torsions:
REMARK  status: ('A' for Active; 'I' for Inactive)
REMARK    1  A    between atoms: C7_7  and  C10_10 
ROOT
HETATM    1  C1  UNL     1     -33.362   6.949   1.374  1.00 20.00    -0.018 C 
HETATM    2  C2  UNL     1     -33.981   7.859   2.146  1.00 20.00    -0.024 C 
HETATM    3  C3  UNL     1     -33.513   5.312   3.105  1.00 20.00     0.139 C 
HETATM    4  C4  UNL     1     -32.119   7.148   3.318  1.00 20.00     0.025 C 
HETATM    5  C5  UNL     1     -32.507   6.099   2.274  1.00 20.00     0.078 C 
HETATM    6  C6  UNL     1     -33.566   7.595   3.582  1.00 20.00     0.020 C 
HETATM    7  C7  UNL     1     -34.259   6.278   4.037  1.00 20.00     0.067 C 
HETATM    8  O11 UNL     1     -33.722   4.112   3.014  1.00 20.00    -0.297 OA
ENDROOT
BRANCH   7   9
HETATM    9  C10 UNL     1     -34.044   5.935   5.499  1.00 20.00    -0.011 C 
HETATM   10  C8  UNL     1     -34.320   7.147   6.392  1.00 20.00     0.010 C 
HETATM   11  C9  UNL     1     -34.927   4.756   5.919  1.00 20.00     0.010 C 
ENDBRANCH   7   9
TORSDOF 1
