REMARK  1 active torsions:
REMARK  status: ('A' for Active; 'I' for Inactive)
REMARK    1  A    between atoms: C5_5  and  N7_7 
ROOT
HETATM    1  C1  UNL     1     -32.685   7.062   2.309  1.00 20.00     0.332 C 
HETATM    2  N7  UNL     1     -32.576   6.522   3.343  1.00 20.00    -0.241 NA
HETATM    3  O8  UNL     1     -32.787   7.601   1.268  1.00 20.00    -0.260 OA
ENDROOT
BRANCH   2   4
HETATM    4  C5  UNL     1     -33.676   6.790   4.280  1.00 20.00     0.126 C 
HETATM    5  C3  UNL     1     -34.758   5.723   4.103  1.00 20.00     0.029 C 
HETATM    6  C2  UNL     1     -34.408   4.657   5.131  1.00 20.00     0.003 C 
HETATM    7  C4  UNL     1     -33.957   5.476   6.330  1.00 20.00     0.018 C 
HETATM    8  C6  UNL     1     -33.165   6.627   5.715  1.00 20.00     0.083 C 
HETATM    9 BR9  UNL     1     -33.439   8.258   6.742  1.00 20.00    -0.089 Br
ENDBRANCH   2   4
TORSDOF 1
