REMARK  0 active torsions:
REMARK  status: ('A' for Active; 'I' for Inactive)
ROOT
HETATM    1  C1  UNL     1     -33.032   7.181   5.018  1.00 20.00     0.050 C 
HETATM    2  C2  UNL     1     -32.655   7.814   3.902  1.00 20.00    -0.014 C 
HETATM    3  C3  UNL     1     -34.016   6.073   4.967  1.00 20.00     0.188 C 
HETATM    4  C4  UNL     1     -34.525   6.740   2.602  1.00 20.00     0.064 C 
HETATM    5  C5  UNL     1     -33.199   7.536   2.518  1.00 20.00    -0.026 C 
HETATM    6  C6  UNL     1     -34.479   5.581   3.602  1.00 20.00     0.164 C 
HETATM    7  C7  UNL     1     -32.135   6.771   1.712  1.00 20.00     0.019 C 
HETATM    8  C8  UNL     1     -33.481   8.872   1.806  1.00 20.00     0.019 C 
HETATM    9  C9  UNL     1     -35.849   4.914   3.704  1.00 20.00     0.060 C 
HETATM   10  O10 UNL     1     -34.369   5.541   6.019  1.00 20.00    -0.290 OA
HETATM   11  F11 UNL     1     -33.611   4.635   3.139  1.00 20.00    -0.235 F 
ENDROOT
TORSDOF 0
