REMARK  1 active torsions:
REMARK  status: ('A' for Active; 'I' for Inactive)
REMARK    1  A    between atoms: C6_6  and  C9_9 
ROOT
HETATM    1  C1  UNL     1     -32.515   5.036   2.210  1.00 20.00     0.302 C 
HETATM    2  C2  UNL     1     -31.928   6.318   2.820  1.00 20.00     0.303 C 
HETATM    3  C3  UNL     1     -34.577   5.438   3.346  1.00 20.00     0.307 C 
HETATM    4  C4  UNL     1     -34.218   6.322   1.136  1.00 20.00     0.308 C 
HETATM    5  C5  UNL     1     -34.024   6.750   3.949  1.00 20.00     0.247 C 
HETATM    6  C6  UNL     1     -33.666   7.626   1.759  1.00 20.00     0.251 C 
HETATM    7  C7  UNL     1     -33.532   6.561   5.386  1.00 20.00     0.045 C 
HETATM    8  N10 UNL     1     -33.976   5.160   2.021  1.00 20.00     0.094 N 
HETATM    9  N11 UNL     1     -32.984   7.332   3.052  1.00 20.00     0.102 N 
ENDROOT
BRANCH   6  10
HETATM   10  C9  UNL     1     -32.778   8.400   0.781  1.00 20.00     0.033 C 
HETATM   11  C8  UNL     1     -33.510   8.737  -0.475  1.00 20.00     0.007 C 
ENDBRANCH   6  10
TORSDOF 1
