REMARK  1 active torsions:
REMARK  status: ('A' for Active; 'I' for Inactive)
REMARK    1  A    between atoms: C6_6  and  C7_7 
ROOT
HETATM    1  C1  UNL     1     -36.054   5.370   4.291  1.00 20.00     0.146 C 
HETATM    2  C2  UNL     1     -35.583   5.859   2.912  1.00 20.00     0.091 C 
HETATM    3  C5  UNL     1     -34.629   4.943   4.696  1.00 20.00     0.160 C 
HETATM    4  C7  UNL     1     -34.114   5.816   3.477  1.00 20.00    -0.010 C 
HETATM    5  C8  UNL     1     -33.189   4.996   2.566  1.00 20.00     0.018 C 
HETATM    6  O9  UNL     1     -37.135   5.336   4.840  1.00 20.00    -0.296 OA
HETATM    7 CL10 UNL     1     -34.179   5.368   6.369  1.00 20.00    -0.116 Cl
ENDROOT
BRANCH   4   8
HETATM    8  C6  UNL     1     -33.498   7.186   3.791  1.00 20.00    -0.004 A 
HETATM    9  C3  UNL     1     -32.168   7.352   4.471  1.00 20.00     0.006 A 
HETATM   10  C4  UNL     1     -32.331   7.755   3.032  1.00 20.00     0.006 A 
ENDBRANCH   4   8
TORSDOF 1
