REMARK  0 active torsions:
REMARK  status: ('A' for Active; 'I' for Inactive)
ROOT
HETATM    1  C1  UNL     1     -34.490   4.854   3.680  1.00 20.00     0.098 A 
HETATM    2  C2  UNL     1     -34.077   5.793   4.602  1.00 20.00     0.136 A 
HETATM    3  C3  UNL     1     -33.078   6.610   2.828  1.00 20.00     0.253 A 
HETATM    4  N4  UNL     1     -33.267   6.800   4.115  1.00 20.00    -0.201 NA
HETATM    5  F5  UNL     1     -32.327   7.442   2.093  1.00 20.00    -0.176 F 
HETATM    6  S6  UNL     1     -33.846   5.239   2.138  1.00 20.00    -0.048 SA
HETATM    7 CL7  UNL     1     -34.510   5.760   6.260  1.00 20.00    -0.062 Cl
ENDROOT
TORSDOF 0
