REMARK  1 active torsions:
REMARK  status: ('A' for Active; 'I' for Inactive)
REMARK    1  A    between atoms: C8_8  and  C11_11 
ROOT
HETATM    1  C1  UNL     1     -32.854   7.012   2.629  1.00 20.00    -0.079 C 
HETATM    2  C2  UNL     1     -34.362   4.370   4.121  1.00 20.00     0.132 C 
HETATM    3  C3  UNL     1     -32.650   8.021   1.784  1.00 20.00     0.015 C 
HETATM    4  C4  UNL     1     -32.146   5.648   2.895  1.00 20.00     0.047 C 
HETATM    5  C5  UNL     1     -35.617   5.180   4.457  1.00 20.00     0.080 C 
HETATM    6  C6  UNL     1     -35.370   6.543   3.715  1.00 20.00     0.022 C 
HETATM    7  C7  UNL     1     -33.591   5.247   3.147  1.00 20.00     0.072 C 
HETATM    8  C8  UNL     1     -33.848   6.714   3.737  1.00 20.00    -0.004 C 
HETATM    9  O12 UNL     1     -34.100   3.263   4.565  1.00 20.00    -0.298 OA
ENDROOT
BRANCH   8  10
HETATM   10  C11 UNL     1     -33.355   7.180   5.114  1.00 20.00    -0.009 C 
HETATM   11  C9  UNL     1     -34.303   8.227   5.689  1.00 20.00     0.011 C 
HETATM   12  C10 UNL     1     -33.222   5.991   6.058  1.00 20.00     0.011 C 
ENDBRANCH   8  10
TORSDOF 1
