REMARK  1 active torsions:
REMARK  status: ('A' for Active; 'I' for Inactive)
REMARK    1  A    between atoms: C4_4  and  C9_9 
ROOT
HETATM    1  C1  UNL     1     -34.166   7.751   1.190  1.00 20.00     0.174 C 
HETATM    2  C2  UNL     1     -31.693   8.019   1.694  1.00 20.00     0.083 C 
HETATM    3  C3  UNL     1     -32.993   8.729   1.309  1.00 20.00     0.015 C 
HETATM    4  C4  UNL     1     -33.422   6.250   2.944  1.00 20.00     0.108 C 
HETATM    5  C5  UNL     1     -32.805   9.488  -0.005  1.00 20.00     0.012 C 
HETATM    6  C6  UNL     1     -33.176   5.037   2.038  1.00 20.00     0.058 C 
HETATM    7  O10 UNL     1     -34.451   7.102   2.426  1.00 20.00    -0.369 OA
HETATM    8  S11 UNL     1     -31.856   7.140   3.273  1.00 20.00    -0.131 SA
ENDROOT
BRANCH   4   9
HETATM    9  C9  UNL     1     -33.944   5.755   4.299  1.00 20.00     0.022 C 
HETATM   10  C7  UNL     1     -34.169   6.931   5.242  1.00 20.00     0.013 C 
HETATM   11  C8  UNL     1     -35.229   4.956   4.112  1.00 20.00     0.013 C 
ENDBRANCH   4   9
TORSDOF 1
