REMARK  0 active torsions:
REMARK  status: ('A' for Active; 'I' for Inactive)
ROOT
HETATM    1  C1  UNL     1     -33.575   6.628   5.098  1.00 20.00     0.145 C 
HETATM    2  C2  UNL     1     -32.697   7.464   4.192  1.00 20.00     0.089 C 
HETATM    3  C3  UNL     1     -32.884   8.764   1.444  1.00 20.00     0.002 C 
HETATM    4  C4  UNL     1     -32.227   7.378   1.601  1.00 20.00     0.010 C 
HETATM    5  C5  UNL     1     -34.134   8.183   2.136  1.00 20.00     0.010 C 
HETATM    6  C6  UNL     1     -33.800   5.714   2.916  1.00 20.00     0.037 C 
HETATM    7  C7  UNL     1     -34.477   5.726   4.291  1.00 20.00     0.152 C 
HETATM    8  C8  UNL     1     -33.198   7.116   2.785  1.00 20.00    -0.032 C 
HETATM    9  O9  UNL     1     -33.556   6.701   6.320  1.00 20.00    -0.296 OA
HETATM   10 CL10 UNL     1     -34.551   4.122   5.012  1.00 20.00    -0.117 Cl
ENDROOT
TORSDOF 0
