REMARK  1 active torsions:
REMARK  status: ('A' for Active; 'I' for Inactive)
REMARK    1  A    between atoms: C2_2  and  C3_3 
ROOT
HETATM    1  C1  UNL     1     -33.009   6.983   4.424  1.00 20.00    -0.016 C 
HETATM    2  C2  UNL     1     -33.855   6.086   3.911  1.00 20.00    -0.020 C 
HETATM    3  C4  UNL     1     -32.000   7.408   3.407  1.00 20.00     0.032 C 
HETATM    4  C5  UNL     1     -33.567   5.758   2.479  1.00 20.00     0.021 C 
HETATM    5  C6  UNL     1     -32.606   6.907   2.081  1.00 20.00    -0.007 C 
HETATM    6  C7  UNL     1     -32.907   4.388   2.338  1.00 20.00     0.015 C 
HETATM    7  C8  UNL     1     -33.361   8.034   1.365  1.00 20.00     0.011 C 
ENDROOT
BRANCH   2   8
HETATM    8  C3  UNL     1     -34.945   5.505   4.676  1.00 20.00     0.265 C 
HETATM    9  O9  UNL     1     -35.168   5.794   5.851  1.00 20.00    -0.302 OA
ENDBRANCH   2   8
TORSDOF 1
