REMARK  2 active torsions:
REMARK  status: ('A' for Active; 'I' for Inactive)
REMARK    1  A    between atoms: C2_2  and  C3_3 
REMARK    2  A    between atoms: C3_3  and  O11_11 
ROOT
HETATM    1  C1  UNL     1     -33.325   5.826   2.493  1.00 20.00    -0.069 C 
HETATM    2  C2  UNL     1     -33.040   6.625   1.468  1.00 20.00     0.084 C 
HETATM    3  C4  UNL     1     -33.543   4.304   2.654  1.00 20.00     0.040 C 
HETATM    4  C5  UNL     1     -35.124   5.939   5.741  1.00 20.00     0.001 C 
HETATM    5  C6  UNL     1     -34.499   6.916   4.714  1.00 20.00     0.009 C 
HETATM    6  C7  UNL     1     -34.860   4.520   5.182  1.00 20.00     0.005 C 
HETATM    7  C8  UNL     1     -33.546   6.013   3.969  1.00 20.00     0.019 C 
HETATM    8  C9  UNL     1     -34.533   4.824   3.736  1.00 20.00    -0.002 C 
ENDROOT
BRANCH   2   9
HETATM    9  C3  UNL     1     -32.877   8.090   1.576  1.00 20.00     0.165 C 
HETATM   10  O10 UNL     1     -32.992   8.698   2.630  1.00 20.00    -0.647 OA
BRANCH   9  11
HETATM   11  O11 UNL     1     -32.590   8.671   0.390  1.00 20.00    -0.773 OA
HETATM   12  H23 UNL     1     -32.484   9.643   0.473  1.00 20.00     0.167 HD
ENDBRANCH   9  11
ENDBRANCH   2   9
TORSDOF 2
