REMARK  1 active torsions:
REMARK  status: ('A' for Active; 'I' for Inactive)
REMARK    1  A    between atoms: C6_6  and  C11_11 
ROOT
HETATM    1  C1  UNL     1     -33.936   5.660   4.588  1.00 20.00    -0.014 C 
HETATM    2  C2  UNL     1     -33.595   6.947   4.811  1.00 20.00    -0.074 C 
HETATM    3  C3  UNL     1     -33.756   5.087   3.210  1.00 20.00     0.155 C 
HETATM    4  C4  UNL     1     -33.123   7.877   3.714  1.00 20.00     0.039 C 
HETATM    5  C5  UNL     1     -33.132   5.946   2.135  1.00 20.00     0.088 C 
HETATM    6  C6  UNL     1     -33.523   7.405   2.316  1.00 20.00     0.000 C 
HETATM    7  C7  UNL     1     -34.486   4.703   5.608  1.00 20.00     0.052 C 
HETATM    8  C8  UNL     1     -33.630   7.605   6.167  1.00 20.00     0.044 C 
HETATM    9  O12 UNL     1     -34.051   3.914   2.976  1.00 20.00    -0.293 OA
ENDROOT
BRANCH   6  10
HETATM   10  C11 UNL     1     -32.886   8.282   1.240  1.00 20.00    -0.018 C 
HETATM   11  C9  UNL     1     -33.359   9.727   1.375  1.00 20.00     0.010 C 
HETATM   12  C10 UNL     1     -31.363   8.206   1.317  1.00 20.00     0.010 C 
ENDBRANCH   6  10
TORSDOF 1
