REMARK  2 active torsions:
REMARK  status: ('A' for Active; 'I' for Inactive)
REMARK    1  A    between atoms: C2_2  and  C5_5 
REMARK    2  A    between atoms: C7_7  and  C10_10 
ROOT
HETATM    1  C1  UNL     1     -33.025   5.821   2.345  1.00 20.00    -0.006 A 
HETATM    2  C2  UNL     1     -33.686   5.928   3.501  1.00 20.00     0.005 A 
HETATM    3  C3  UNL     1     -32.938   6.920   4.297  1.00 20.00     0.159 A 
HETATM    4  C6  UNL     1     -31.721   7.412   3.565  1.00 20.00     0.092 A 
HETATM    5  C7  UNL     1     -31.811   6.693   2.216  1.00 20.00     0.019 A 
HETATM    6  O11 UNL     1     -33.265   7.285   5.417  1.00 20.00    -0.292 OA
ENDROOT
BRANCH   5   7
HETATM    7  C10 UNL     1     -31.941   7.666   1.050  1.00 20.00    -0.015 C 
HETATM    8  C8  UNL     1     -31.588   6.979  -0.268  1.00 20.00     0.010 C 
HETATM    9  C9  UNL     1     -33.352   8.248   0.988  1.00 20.00     0.010 C 
ENDBRANCH   5   7
BRANCH   2  10
HETATM   10  C5  UNL     1     -34.862   5.246   3.923  1.00 20.00     0.004 C 
HETATM   11  C4  UNL     1     -35.390   5.491   5.144  1.00 20.00     0.012 C 
ENDBRANCH   2  10
TORSDOF 2
