REMARK  1 active torsions:
REMARK  status: ('A' for Active; 'I' for Inactive)
REMARK    1  A    between atoms: C2_2  and  C9_9 
ROOT
HETATM    1  C1  UNL     1     -33.067   5.921   2.241  1.00 20.00     0.057 A 
HETATM    2  C2  UNL     1     -32.904   7.246   2.307  1.00 20.00    -0.069 A 
HETATM    3  C3  UNL     1     -33.633   5.520   3.535  1.00 20.00     0.189 A 
HETATM    4  C4  UNL     1     -33.344   7.876   3.597  1.00 20.00     0.086 A 
HETATM    5  C5  UNL     1     -33.787   6.697   4.463  1.00 20.00     0.167 A 
HETATM    6  C6  UNL     1     -35.205   6.828   4.986  1.00 20.00     0.061 C 
HETATM    7  O10 UNL     1     -33.903   4.361   3.812  1.00 20.00    -0.290 OA
HETATM    8  F11 UNL     1     -32.942   6.578   5.522  1.00 20.00    -0.234 F 
ENDROOT
BRANCH   2   9
HETATM    9  C9  UNL     1     -32.350   8.098   1.219  1.00 20.00     0.006 C 
HETATM   10  C7  UNL     1     -31.953   7.244   0.015  1.00 20.00     0.014 C 
HETATM   11  C8  UNL     1     -33.348   9.181   0.804  1.00 20.00     0.014 C 
ENDBRANCH   2   9
TORSDOF 1
