REMARK  1 active torsions:
REMARK  status: ('A' for Active; 'I' for Inactive)
REMARK    1  A    between atoms: C3_3  and  C7_7 
ROOT
HETATM    1  C1  UNL     1     -32.857   7.010   4.067  1.00 20.00     0.089 C 
HETATM    2  C2  UNL     1     -32.392   6.591   2.679  1.00 20.00     0.053 C 
HETATM    3  C3  UNL     1     -34.371   4.850   3.463  1.00 20.00     0.112 C 
HETATM    4  C4  UNL     1     -32.976   7.442   1.553  1.00 20.00     0.022 C 
HETATM    5  S8  UNL     1     -34.563   6.451   4.303  1.00 20.00    -0.152 SA
HETATM    6  S9  UNL     1     -32.852   4.843   2.453  1.00 20.00    -0.148 SA
ENDROOT
BRANCH   3   7
HETATM    7  C7  UNL     1     -34.305   3.729   4.491  1.00 20.00     0.001 C 
HETATM    8  C5  UNL     1     -34.160   2.371   3.803  1.00 20.00     0.011 C 
HETATM    9  C6  UNL     1     -33.152   3.958   5.468  1.00 20.00     0.011 C 
ENDBRANCH   3   7
TORSDOF 1
