REMARK  1 active torsions:
REMARK  status: ('A' for Active; 'I' for Inactive)
REMARK    1  A    between atoms: C9_9  and  C12_12 
ROOT
HETATM    1  C1  UNL     1     -33.716   4.482   3.743  1.00 20.00     0.012 C 
HETATM    2  C2  UNL     1     -34.967   4.124   4.041  1.00 20.00     0.052 C 
HETATM    3  C3  UNL     1     -34.365   8.349   2.355  1.00 20.00    -0.025 C 
HETATM    4  C4  UNL     1     -35.257   7.730   3.149  1.00 20.00    -0.008 C 
HETATM    5  C5  UNL     1     -32.690   6.502   2.736  1.00 20.00    -0.014 C 
HETATM    6  C6  UNL     1     -33.603   5.898   3.509  1.00 20.00    -0.041 C 
HETATM    7  C7  UNL     1     -35.744   5.386   4.062  1.00 20.00     0.166 C 
HETATM    8  C8  UNL     1     -32.925   7.905   2.237  1.00 20.00     0.054 C 
HETATM    9  C9  UNL     1     -34.832   6.599   4.038  1.00 20.00     0.071 C 
HETATM   10  O13 UNL     1     -36.963   5.411   4.146  1.00 20.00    -0.292 OA
ENDROOT
BRANCH   9  11
HETATM   11  C12 UNL     1     -34.638   7.098   5.477  1.00 20.00     0.002 C 
HETATM   12  C10 UNL     1     -34.241   5.942   6.389  1.00 20.00     0.011 C 
HETATM   13  C11 UNL     1     -33.593   8.206   5.517  1.00 20.00     0.011 C 
ENDBRANCH   9  11
TORSDOF 1
