REMARK  2 active torsions:
REMARK  status: ('A' for Active; 'I' for Inactive)
REMARK    1  A    between atoms: C2_2  and  C4_4 
REMARK    2  A    between atoms: C4_4  and  C5_5 
ROOT
HETATM    1  C1  UNL     1     -33.531   5.516   3.546  1.00 20.00     0.147 A 
HETATM    2  C2  UNL     1     -32.672   6.206   2.515  1.00 20.00     0.151 A 
HETATM    3  C3  UNL     1     -34.602   6.209   4.310  1.00 20.00     0.042 C 
HETATM    4  O6  UNL     1     -33.784   5.383   2.141  1.00 20.00    -0.376 OA
ENDROOT
BRANCH   2   5
HETATM    5  C4  UNL     1     -32.815   7.644   2.166  1.00 20.00     0.049 C 
BRANCH   5   6
HETATM    6  C5  UNL     1     -32.747   7.949   0.659  1.00 20.00     0.117 C 
HETATM    7 CL7  UNL     1     -32.927   9.689   0.336  1.00 20.00    -0.130 Cl
ENDBRANCH   5   6
ENDBRANCH   2   5
TORSDOF 2
