REMARK  0 active torsions:
REMARK  status: ('A' for Active; 'I' for Inactive)
ROOT
HETATM    1  C1  UNL     1     -33.973   3.613   4.166  1.00 20.00    -0.028 C 
HETATM    2  C2  UNL     1     -33.785   4.149   2.947  1.00 20.00     0.003 C 
HETATM    3  C3  UNL     1     -33.186   6.433   3.364  1.00 20.00     0.154 C 
HETATM    4  C4  UNL     1     -34.601   4.405   5.289  1.00 20.00     0.032 C 
HETATM    5  C5  UNL     1     -33.607   6.724   4.793  1.00 20.00     0.085 C 
HETATM    6  C6  UNL     1     -35.462   5.938   3.494  1.00 20.00     0.043 C 
HETATM    7  C7  UNL     1     -34.896   5.881   4.919  1.00 20.00    -0.002 C 
HETATM    8  C8  UNL     1     -34.218   5.562   2.677  1.00 20.00     0.115 C 
HETATM    9  O9  UNL     1     -32.137   6.826   2.871  1.00 20.00    -0.295 OA
HETATM   10 CL10 UNL     1     -34.376   5.944   0.977  1.00 20.00    -0.106 Cl
ENDROOT
TORSDOF 0
