REMARK  1 active torsions:
REMARK  status: ('A' for Active; 'I' for Inactive)
REMARK    1  A    between atoms: C7_7  and  N9_9 
ROOT
HETATM    1  C1  UNL     1     -34.674   6.064   5.474  1.00 20.00     0.004 A 
HETATM    2  C2  UNL     1     -34.637   5.246   4.417  1.00 20.00     0.042 A 
HETATM    3  C3  UNL     1     -33.847   7.234   5.532  1.00 20.00     0.018 A 
HETATM    4  C4  UNL     1     -33.022   7.518   4.518  1.00 20.00     0.097 A 
HETATM    5  C5  UNL     1     -33.721   5.537   3.257  1.00 20.00     0.106 A 
HETATM    6  N9  UNL     1     -32.939   6.707   3.394  1.00 20.00    -0.324 N 
HETATM    7  S10 UNL     1     -33.700   4.481   1.933  1.00 20.00    -0.060 SA
ENDROOT
BRANCH   6   8
HETATM    8  C7  UNL     1     -32.035   7.161   2.457  1.00 20.00     0.093 C 
HETATM    9  C6  UNL     1     -32.373   8.001   1.472  1.00 20.00    -0.013 C 
HETATM   10  C8  UNL     1     -33.754   8.534   1.278  1.00 20.00     0.037 C 
ENDBRANCH   6   8
TORSDOF 1
