REMARK  1 active torsions:
REMARK  status: ('A' for Active; 'I' for Inactive)
REMARK    1  A    between atoms: C4_4  and  C5_5 
ROOT
HETATM    1  C1  UNL     1     -32.937   8.543  -0.031  1.00 20.00     0.015 C 
HETATM    2  C2  UNL     1     -32.932   7.737   0.859  1.00 20.00    -0.083 C 
HETATM    3  C3  UNL     1     -32.925   6.778   1.918  1.00 20.00     0.229 A 
HETATM    4  C4  UNL     1     -33.435   7.172   3.280  1.00 20.00     0.177 A 
HETATM    5  O6  UNL     1     -32.035   7.131   2.990  1.00 20.00    -0.361 OA
ENDROOT
BRANCH   4   6
HETATM    6  C5  UNL     1     -33.892   6.146   4.254  1.00 20.00     0.150 C 
HETATM    7 CL7  UNL     1     -33.882   6.782   5.923  1.00 20.00    -0.128 Cl
ENDBRANCH   4   6
TORSDOF 1
