REMARK  0 active torsions:
REMARK  status: ('A' for Active; 'I' for Inactive)
ROOT
HETATM    1  C1  UNL     1     -33.089   8.926   0.741  1.00 20.00     0.001 C 
HETATM    2  C2  UNL     1     -31.948   8.124   0.122  1.00 20.00     0.001 C 
HETATM    3  C3  UNL     1     -33.877   7.948   1.612  1.00 20.00     0.011 C 
HETATM    4  C4  UNL     1     -32.158   6.683   0.576  1.00 20.00     0.011 C 
HETATM    5  C5  UNL     1     -31.918   7.137   3.062  1.00 20.00     0.096 C 
HETATM    6  C6  UNL     1     -33.601   5.476   2.269  1.00 20.00     0.096 C 
HETATM    7  C7  UNL     1     -32.898   6.796   1.919  1.00 20.00    -0.022 C 
HETATM    8  S8  UNL     1     -32.771   6.898   4.646  1.00 20.00    -0.097 SA
HETATM    9  S9  UNL     1     -34.198   5.591   3.975  1.00 20.00    -0.097 SA
ENDROOT
TORSDOF 0
