REMARK  1 active torsions:
REMARK  status: ('A' for Active; 'I' for Inactive)
REMARK    1  A    between atoms: C4_4  and  C7_7 
ROOT
HETATM    1  C1  UNL     1     -32.737   8.508   0.890  1.00 20.00     0.075 C 
HETATM    2  C2  UNL     1     -33.808   6.336   1.347  1.00 20.00     0.105 C 
HETATM    3  C3  UNL     1     -32.574   7.204   1.544  1.00 20.00     0.164 C 
HETATM    4  C4  UNL     1     -33.021   5.809   3.869  1.00 20.00     0.113 C 
HETATM    5  N8  UNL     1     -32.866   9.538   0.373  1.00 20.00    -0.196 NA
HETATM    6  S9  UNL     1     -33.613   4.890   2.416  1.00 20.00    -0.151 SA
HETATM    7  S10 UNL     1     -32.304   7.400   3.337  1.00 20.00    -0.133 SA
ENDROOT
BRANCH   4   8
HETATM    8  C7  UNL     1     -34.173   6.063   4.832  1.00 20.00     0.001 C 
HETATM    9  C5  UNL     1     -34.779   4.745   5.311  1.00 20.00     0.011 C 
HETATM   10  C6  UNL     1     -33.708   6.901   6.023  1.00 20.00     0.011 C 
ENDBRANCH   4   8
TORSDOF 1
