REMARK  1 active torsions:
REMARK  status: ('A' for Active; 'I' for Inactive)
REMARK    1  A    between atoms: C5_5  and  C10_10 
ROOT
HETATM    1  C1  UNL     1     -33.510   7.003   4.209  1.00 20.00     0.166 C 
HETATM    2  C2  UNL     1     -32.332   7.374   3.335  1.00 20.00     0.086 C 
HETATM    3  C3  UNL     1     -33.286   5.797   1.544  1.00 20.00     0.009 C 
HETATM    4  C4  UNL     1     -33.511   4.940   2.787  1.00 20.00     0.052 C 
HETATM    5  C5  UNL     1     -32.625   7.156   1.847  1.00 20.00    -0.004 C 
HETATM    6  C6  UNL     1     -34.229   5.698   3.903  1.00 20.00     0.159 C 
HETATM    7  C7  UNL     1     -35.692   5.975   3.578  1.00 20.00     0.060 C 
HETATM    8  O11 UNL     1     -33.829   7.698   5.175  1.00 20.00    -0.294 OA
HETATM    9  F12 UNL     1     -34.210   4.898   5.012  1.00 20.00    -0.235 F 
ENDROOT
BRANCH   5  10
HETATM   10  C10 UNL     1     -33.453   8.310   1.273  1.00 20.00    -0.018 C 
HETATM   11  C8  UNL     1     -32.722   9.638   1.452  1.00 20.00     0.010 C 
HETATM   12  C9  UNL     1     -33.767   8.064  -0.201  1.00 20.00     0.010 C 
ENDBRANCH   5  10
TORSDOF 1
