REMARK  1 active torsions:
REMARK  status: ('A' for Active; 'I' for Inactive)
REMARK    1  A    between atoms: C5_5  and  C7_7 
ROOT
HETATM    1  C1  UNL     1     -35.033   5.028   5.057  1.00 20.00     0.003 C 
HETATM    2  C2  UNL     1     -34.253   6.118   5.787  1.00 20.00     0.003 C 
HETATM    3  C3  UNL     1     -34.229   4.803   3.774  1.00 20.00     0.041 C 
HETATM    4  C4  UNL     1     -33.823   7.067   4.667  1.00 20.00     0.041 C 
HETATM    5  C5  UNL     1     -33.328   6.624   2.089  1.00 20.00     0.167 A 
HETATM    6  C6  UNL     1     -33.642   6.154   3.491  1.00 20.00     0.088 A 
HETATM    7  O8  UNL     1     -32.308   6.120   2.956  1.00 20.00    -0.368 OA
ENDROOT
BRANCH   5   8
HETATM    8  C7  UNL     1     -33.191   8.064   1.743  1.00 20.00     0.120 C 
HETATM    9 BR9  UNL     1     -32.152   8.279   0.104  1.00 20.00    -0.094 Br
ENDBRANCH   5   8
TORSDOF 1
