REMARK  0 active torsions:
REMARK  status: ('A' for Active; 'I' for Inactive)
ROOT
HETATM    1  C1  UNL     1     -33.577   7.679   2.003  1.00 20.00    -0.029 C 
HETATM    2  C2  UNL     1     -34.358   7.094   2.916  1.00 20.00    -0.013 C 
HETATM    3  C3  UNL     1     -33.597   4.925   3.744  1.00 20.00     0.139 C 
HETATM    4  C4  UNL     1     -32.128   7.506   2.322  1.00 20.00     0.032 C 
HETATM    5  C5  UNL     1     -34.447   4.209   4.765  1.00 20.00     0.079 C 
HETATM    6  C6  UNL     1     -35.152   5.364   5.464  1.00 20.00     0.009 C 
HETATM    7  C7  UNL     1     -34.151   6.514   5.400  1.00 20.00     0.022 C 
HETATM    8  C8  UNL     1     -32.143   7.043   3.795  1.00 20.00     0.004 C 
HETATM    9  C9  UNL     1     -33.549   6.431   3.993  1.00 20.00     0.041 C 
HETATM   10  C10 UNL     1     -31.841   8.229   4.720  1.00 20.00     0.011 C 
HETATM   11  O11 UNL     1     -33.021   4.347   2.830  1.00 20.00    -0.297 OA
ENDROOT
TORSDOF 0
