REMARK  0 active torsions:
REMARK  status: ('A' for Active; 'I' for Inactive)
ROOT
HETATM    1  C1  UNL     1     -32.699   8.451   1.003  1.00 20.00    -0.004 C 
HETATM    2  C2  UNL     1     -34.042   8.168   1.435  1.00 20.00    -0.003 C 
HETATM    3  C3  UNL     1     -31.686   7.630   1.308  1.00 20.00    -0.025 C 
HETATM    4  C4  UNL     1     -34.304   7.200   2.326  1.00 20.00    -0.009 C 
HETATM    5  C5  UNL     1     -32.978   6.958   4.325  1.00 20.00     0.140 C 
HETATM    6  C6  UNL     1     -31.883   6.379   2.121  1.00 20.00     0.048 C 
HETATM    7  C7  UNL     1     -33.963   6.654   5.434  1.00 20.00     0.079 C 
HETATM    8  C8  UNL     1     -34.224   5.166   5.537  1.00 20.00     0.008 C 
HETATM    9  C9  UNL     1     -34.704   4.606   4.208  1.00 20.00     0.006 C 
HETATM   10  C10 UNL     1     -33.658   4.827   3.099  1.00 20.00     0.001 C 
HETATM   11  C11 UNL     1     -33.224   6.321   2.937  1.00 20.00     0.044 C 
HETATM   12  C12 UNL     1     -34.192   4.197   1.801  1.00 20.00     0.011 C 
HETATM   13  O13 UNL     1     -32.086   7.789   4.519  1.00 20.00    -0.297 OA
ENDROOT
TORSDOF 0
