REMARK  0 active torsions:
REMARK  status: ('A' for Active; 'I' for Inactive)
ROOT
HETATM    1  C1  UNL     1     -33.454   6.616   4.766  1.00 20.00     0.076 A 
HETATM    2  C2  UNL     1     -34.438   5.712   4.481  1.00 20.00     0.123 A 
HETATM    3  C3  UNL     1     -33.293   6.661   2.627  1.00 20.00     0.073 A 
HETATM    4  C4  UNL     1     -34.491   5.762   6.559  1.00 20.00     0.097 A 
HETATM    5  C5  UNL     1     -33.362   6.768   6.219  1.00 20.00     0.109 A 
HETATM    6  C6  UNL     1     -32.847   7.000   1.257  1.00 20.00     0.079 C 
HETATM    7  N7  UNL     1     -32.779   7.178   3.731  1.00 20.00    -0.248 NA
HETATM    8  N8  UNL     1     -35.083   5.177   5.547  1.00 20.00    -0.255 NA
HETATM    9  S9  UNL     1     -34.581   5.504   2.820  1.00 20.00    -0.053 SA
ENDROOT
TORSDOF 0
