REMARK  0 active torsions:
REMARK  status: ('A' for Active; 'I' for Inactive)
ROOT
HETATM    1  C1  UNL     1     -33.799   4.477   3.163  1.00 20.00     0.154 A 
HETATM    2  C2  UNL     1     -33.687   5.548   4.016  1.00 20.00     0.005 A 
HETATM    3  C3  UNL     1     -33.134   6.582   3.271  1.00 20.00     0.013 A 
HETATM    4  C4  UNL     1     -33.054   6.163   1.979  1.00 20.00     0.062 A 
HETATM    5  C5  UNL     1     -34.091   7.151   5.720  1.00 20.00     0.143 C 
HETATM    6  C6  UNL     1     -34.090   5.851   5.341  1.00 20.00    -0.027 C 
HETATM    7  C7  UNL     1     -32.802   7.025   0.808  1.00 20.00     0.066 C 
HETATM    8  C8  UNL     1     -32.439   8.461   1.298  1.00 20.00     0.009 C 
HETATM    9  C9  UNL     1     -33.171   8.917   2.599  1.00 20.00     0.038 C 
HETATM   10  C10 UNL     1     -32.902   7.943   3.770  1.00 20.00     0.164 C 
HETATM   11  C11 UNL     1     -34.547   4.717   6.197  1.00 20.00     0.051 C 
HETATM   12  O12 UNL     1     -33.423   4.856   1.886  1.00 20.00    -0.326 OA
HETATM   13  O13 UNL     1     -33.700   8.244   4.944  1.00 20.00    -0.352 OA
ENDROOT
TORSDOF 0
