REMARK  1 active torsions:
REMARK  status: ('A' for Active; 'I' for Inactive)
REMARK    1  A    between atoms: C6_6  and  C10_10 
ROOT
HETATM    1  C1  UNL     1     -33.374   9.190   1.834  1.00 20.00     0.054 A 
HETATM    2  C2  UNL     1     -32.652   6.990   0.809  1.00 20.00     0.060 A 
HETATM    3  C3  UNL     1     -33.808   8.523   2.908  1.00 20.00     0.025 A 
HETATM    4  C4  UNL     1     -33.091   6.329   1.892  1.00 20.00    -0.037 A 
HETATM    5  C5  UNL     1     -32.728   8.465   0.722  1.00 20.00     0.172 A 
HETATM    6  C6  UNL     1     -33.681   7.034   3.101  1.00 20.00     0.147 A 
HETATM    7  C7  UNL     1     -33.049   4.825   1.929  1.00 20.00     0.047 C 
HETATM    8  O11 UNL     1     -32.283   9.066  -0.251  1.00 20.00    -0.289 OA
HETATM    9  F12 UNL     1     -34.930   6.529   3.341  1.00 20.00    -0.233 F 
ENDROOT
BRANCH   6  10
HETATM   10  C10 UNL     1     -32.849   6.773   4.361  1.00 20.00     0.026 C 
HETATM   11  C8  UNL     1     -31.448   7.357   4.202  1.00 20.00     0.014 C 
HETATM   12  C9  UNL     1     -33.543   7.357   5.587  1.00 20.00     0.014 C 
ENDBRANCH   6  10
TORSDOF 1
