REMARK  0 active torsions:
REMARK  status: ('A' for Active; 'I' for Inactive)
ROOT
HETATM    1  C1  UNL     1     -33.197   6.283   1.875  1.00 20.00     0.024 A 
HETATM    2  C2  UNL     1     -33.569   5.855   3.185  1.00 20.00    -0.016 A 
HETATM    3  C3  UNL     1     -33.494   6.896   4.089  1.00 20.00    -0.007 A 
HETATM    4  C4  UNL     1     -32.863   7.620   1.841  1.00 20.00    -0.020 A 
HETATM    5  C5  UNL     1     -33.968   4.468   3.595  1.00 20.00     0.311 C 
HETATM    6  C6  UNL     1     -33.854   6.770   5.533  1.00 20.00     0.077 C 
HETATM    7  C7  UNL     1     -33.990   5.280   5.907  1.00 20.00     0.277 C 
HETATM    8  C8  UNL     1     -32.430   8.431   0.682  1.00 20.00     0.056 C 
HETATM    9  C9  UNL     1     -36.091   4.796   4.759  1.00 20.00     0.310 C 
HETATM   10  N10 UNL     1     -34.676   4.454   4.893  1.00 20.00     0.088 N 
HETATM   11  S11 UNL     1     -32.997   8.358   3.382  1.00 20.00    -0.099 SA
ENDROOT
TORSDOF 0
