REMARK  1 active torsions:
REMARK  status: ('A' for Active; 'I' for Inactive)
REMARK    1  A    between atoms: C3_3  and  C8_8 
ROOT
HETATM    1  C1  UNL     1     -33.739   6.494   4.396  1.00 20.00     0.145 C 
HETATM    2  C4  UNL     1     -34.366   5.692   5.518  1.00 20.00     0.080 C 
HETATM    3  C5  UNL     1     -34.995   4.413   4.982  1.00 20.00     0.016 C 
HETATM    4  C6  UNL     1     -33.468   4.449   2.978  1.00 20.00     0.036 C 
HETATM    5  C7  UNL     1     -32.799   5.724   3.485  1.00 20.00     0.152 C 
HETATM    6  C8  UNL     1     -34.002   3.599   4.141  1.00 20.00     0.009 C 
HETATM    7  O9  UNL     1     -33.923   7.708   4.316  1.00 20.00    -0.296 OA
HETATM    8 CL10 UNL     1     -32.314   6.745   2.111  1.00 20.00    -0.117 Cl
ENDROOT
BRANCH   6   9
HETATM    9  C3  UNL     1     -34.649   2.346   3.637  1.00 20.00    -0.032 C 
HETATM   10  C2  UNL     1     -35.713   2.327   2.827  1.00 20.00     0.007 C 
ENDBRANCH   6   9
TORSDOF 1
