REMARK  0 active torsions:
REMARK  status: ('A' for Active; 'I' for Inactive)
ROOT
HETATM    1  C1  UNL     1     -33.322   6.708   4.486  1.00 20.00     0.161 C 
HETATM    2  C2  UNL     1     -32.241   7.293   3.608  1.00 20.00     0.091 C 
HETATM    3  C3  UNL     1     -32.623   6.977   2.176  1.00 20.00     0.084 C 
HETATM    4  C4  UNL     1     -34.050   5.518   3.887  1.00 20.00     0.141 C 
HETATM    5  C5  UNL     1     -35.545   5.782   3.790  1.00 20.00     0.053 C 
HETATM    6  O6  UNL     1     -33.548   7.139   5.614  1.00 20.00    -0.295 OA
HETATM    7  S7  UNL     1     -33.314   5.311   2.238  1.00 20.00    -0.135 SA
HETATM    8 CL8  UNL     1     -33.715   4.104   4.906  1.00 20.00    -0.099 Cl
ENDROOT
TORSDOF 0
