REMARK  1 active torsions:
REMARK  status: ('A' for Active; 'I' for Inactive)
REMARK    1  A    between atoms: C9_9  and  N10_10 
ROOT
HETATM    1  C1  UNL     1     -34.817   5.635   6.599  1.00 20.00     0.004 A 
HETATM    2  C2  UNL     1     -34.234   6.799   6.293  1.00 20.00     0.042 A 
HETATM    3  C3  UNL     1     -34.879   4.567   5.644  1.00 20.00     0.017 A 
HETATM    4  C4  UNL     1     -34.338   4.728   4.432  1.00 20.00     0.093 A 
HETATM    5  C5  UNL     1     -33.628   7.012   4.932  1.00 20.00     0.103 A 
HETATM    6  N10 UNL     1     -33.703   5.907   4.038  1.00 20.00    -0.339 N 
HETATM    7  S11 UNL     1     -32.921   8.502   4.553  1.00 20.00    -0.060 SA
ENDROOT
BRANCH   6   8
HETATM    8  C9  UNL     1     -33.161   5.954   2.691  1.00 20.00     0.027 C 
HETATM    9  C6  UNL     1     -33.435   4.619   1.989  1.00 20.00     0.038 C 
HETATM   10  C7  UNL     1     -33.835   7.093   1.920  1.00 20.00     0.038 C 
HETATM   11  C8  UNL     1     -31.649   6.197   2.761  1.00 20.00     0.038 C 
ENDBRANCH   6   8
TORSDOF 1
