REMARK  2 active torsions:
REMARK  status: ('A' for Active; 'I' for Inactive)
REMARK    1  A    between atoms: C1_1  and  C4_4 
REMARK    2  A    between atoms: C1_1  and  C5_5 
ROOT
HETATM    1  C1  UNL     1     -33.327   6.514   4.115  1.00 20.00     0.163 C 
HETATM    2  O6  UNL     1     -33.033   7.163   5.121  1.00 20.00    -0.295 OA
ENDROOT
BRANCH   1   3
HETATM    3  C4  UNL     1     -32.582   6.695   2.805  1.00 20.00     0.194 C 
HETATM    4 CL7  UNL     1     -33.328   7.980   1.838  1.00 20.00    -0.122 Cl
ENDBRANCH   1   3
BRANCH   1   5
HETATM    5  C5  UNL     1     -34.481   5.499   4.143  1.00 20.00     0.091 C 
HETATM    6  C2  UNL     1     -33.980   4.095   3.791  1.00 20.00     0.041 C 
HETATM    7  C3  UNL     1     -35.624   5.886   3.204  1.00 20.00     0.041 C 
HETATM    8 CL8  UNL     1     -35.078   5.479   5.834  1.00 20.00    -0.112 Cl
ENDBRANCH   1   5
TORSDOF 2
