REMARK  1 active torsions:
REMARK  status: ('A' for Active; 'I' for Inactive)
REMARK    1  A    between atoms: C7_7  and  C11_11 
ROOT
HETATM    1  C1  UNL     1     -33.158   4.601   2.562  1.00 20.00    -0.023 C 
HETATM    2  C2  UNL     1     -32.775   5.513   1.654  1.00 20.00     0.007 C 
HETATM    3  C3  UNL     1     -34.139   7.253   2.824  1.00 20.00     0.050 C 
HETATM    4  C4  UNL     1     -32.262   7.110   4.200  1.00 20.00     0.174 C 
HETATM    5  C5  UNL     1     -33.708   5.017   3.912  1.00 20.00     0.010 C 
HETATM    6  C6  UNL     1     -33.694   6.564   4.104  1.00 20.00     0.020 C 
HETATM    7  C7  UNL     1     -32.901   6.987   1.966  1.00 20.00     0.082 C 
HETATM    8  C8  UNL     1     -35.122   4.456   4.088  1.00 20.00     0.015 C 
HETATM    9  O12 UNL     1     -31.801   7.314   2.845  1.00 20.00    -0.375 OA
ENDROOT
BRANCH   7  10
HETATM   10  C11 UNL     1     -32.847   7.856   0.720  1.00 20.00     0.016 C 
HETATM   11  C9  UNL     1     -33.013   9.334   1.080  1.00 20.00     0.013 C 
HETATM   12  C10 UNL     1     -31.537   7.639  -0.038  1.00 20.00     0.013 C 
ENDBRANCH   7  10
TORSDOF 1
