REMARK  0 active torsions:
REMARK  status: ('A' for Active; 'I' for Inactive)
ROOT
HETATM    1  C1  UNL     1     -34.194   6.414   5.158  1.00 20.00     0.082 C 
HETATM    2  C2  UNL     1     -33.879   6.384   3.867  1.00 20.00    -0.050 C 
HETATM    3  C3  UNL     1     -34.424   5.007   5.536  1.00 20.00     0.171 C 
HETATM    4  C4  UNL     1     -33.219   7.380   2.977  1.00 20.00     0.036 C 
HETATM    5  C5  UNL     1     -34.088   4.073   4.396  1.00 20.00     0.094 C 
HETATM    6  C6  UNL     1     -32.584   6.484   1.901  1.00 20.00     0.005 C 
HETATM    7  C7  UNL     1     -32.631   5.053   2.457  1.00 20.00     0.010 C 
HETATM    8  C8  UNL     1     -33.938   5.034   3.228  1.00 20.00     0.023 C 
HETATM    9  O9  UNL     1     -34.790   4.647   6.644  1.00 20.00    -0.291 OA
HETATM   10 CL10 UNL     1     -34.126   7.686   6.257  1.00 20.00    -0.080 Cl
ENDROOT
TORSDOF 0
