REMARK  1 active torsions:
REMARK  status: ('A' for Active; 'I' for Inactive)
REMARK    1  A    between atoms: C5_5  and  C9_9 
ROOT
HETATM    1  C1  UNL     1     -33.773   4.991   2.582  1.00 20.00     0.049 C 
HETATM    2  C2  UNL     1     -33.245   5.823   1.676  1.00 20.00    -0.018 C 
HETATM    3  C3  UNL     1     -33.837   5.396   4.007  1.00 20.00     0.182 C 
HETATM    4  C4  UNL     1     -33.263   7.721   3.328  1.00 20.00     0.054 C 
HETATM    5  C5  UNL     1     -32.737   7.210   1.980  1.00 20.00     0.014 C 
HETATM    6  C6  UNL     1     -33.127   6.666   4.413  1.00 20.00     0.244 C 
HETATM    7  O10 UNL     1     -34.410   4.679   4.825  1.00 20.00    -0.290 OA
HETATM    8  F11 UNL     1     -33.653   7.165   5.566  1.00 20.00    -0.241 F 
ENDROOT
BRANCH   5   9
HETATM    9  C9  UNL     1     -33.116   8.186   0.866  1.00 20.00    -0.015 C 
HETATM   10  C7  UNL     1     -32.629   9.594   1.200  1.00 20.00     0.010 C 
HETATM   11  C8  UNL     1     -32.544   7.720  -0.470  1.00 20.00     0.010 C 
ENDBRANCH   5   9
TORSDOF 1
