REMARK  0 active torsions:
REMARK  status: ('A' for Active; 'I' for Inactive)
ROOT
HETATM    1  C1  UNL     1     -33.487   6.271   2.756  1.00 20.00     0.051 C 
HETATM    2  C2  UNL     1     -32.660   7.437   2.379  1.00 20.00     0.058 C 
HETATM    3  C3  UNL     1     -31.898   7.564   3.721  1.00 20.00     0.007 C 
HETATM    4  C4  UNL     1     -35.238   6.021   6.093  1.00 20.00     0.004 C 
HETATM    5  C5  UNL     1     -34.830   4.626   5.542  1.00 20.00     0.036 C 
HETATM    6  C6  UNL     1     -32.422   6.428   4.651  1.00 20.00     0.018 C 
HETATM    7  C7  UNL     1     -34.829   7.062   5.005  1.00 20.00     0.018 C 
HETATM    8  C8  UNL     1     -34.634   4.958   4.088  1.00 20.00     0.169 C 
HETATM    9  C9  UNL     1     -33.869   6.250   4.177  1.00 20.00     0.031 C 
HETATM   10  N10 UNL     1     -33.525   5.126   2.143  1.00 20.00    -0.142 NA
HETATM   11  O11 UNL     1     -33.932   4.177   3.154  1.00 20.00    -0.250 OA
ENDROOT
TORSDOF 0
