REMARK  1 active torsions:
REMARK  status: ('A' for Active; 'I' for Inactive)
REMARK    1  A    between atoms: C3_3  and  C6_6 
ROOT
HETATM    1  C1  UNL     1     -33.859   7.241   3.661  1.00 20.00    -0.009 C 
HETATM    2  C2  UNL     1     -33.062   6.805   2.669  1.00 20.00    -0.086 C 
HETATM    3  C4  UNL     1     -33.153   5.398   2.134  1.00 20.00     0.037 C 
HETATM    4  C5  UNL     1     -35.136   5.034   3.663  1.00 20.00     0.023 C 
HETATM    5  C6  UNL     1     -34.928   6.408   4.302  1.00 20.00     0.110 C 
HETATM    6  C7  UNL     1     -33.855   4.411   3.083  1.00 20.00    -0.014 C 
HETATM    7  C8  UNL     1     -32.046   7.696   2.019  1.00 20.00     0.043 C 
HETATM    8  C9  UNL     1     -32.900   3.915   4.173  1.00 20.00     0.010 C 
ENDROOT
BRANCH   5   9
HETATM    9  C3  UNL     1     -34.582   6.299   5.775  1.00 20.00     0.180 C 
HETATM   10  O10 UNL     1     -33.855   7.225   6.229  1.00 20.00    -0.647 OA
HETATM   11  O11 UNL     1     -35.068   5.290   6.359  1.00 20.00    -0.647 OA
ENDBRANCH   5   9
TORSDOF 1
