REMARK  0 active torsions:
REMARK  status: ('A' for Active; 'I' for Inactive)
ROOT
HETATM    1  C1  UNL     1     -33.738   4.855   3.086  1.00 20.00     0.146 C 
HETATM    2  C2  UNL     1     -33.706   6.274   3.646  1.00 20.00     0.084 C 
HETATM    3  C3  UNL     1     -35.908   5.255   4.305  1.00 20.00     0.034 C 
HETATM    4  C4  UNL     1     -34.307   4.733   5.539  1.00 20.00     0.034 C 
HETATM    5  C5  UNL     1     -34.685   6.096   4.841  1.00 20.00    -0.004 C 
HETATM    6  C6  UNL     1     -34.748   4.205   4.122  1.00 20.00     0.079 C 
HETATM    7  O7  UNL     1     -33.127   4.445   2.120  1.00 20.00    -0.296 OA
HETATM    8 BR8  UNL     1     -35.153   2.382   3.876  1.00 20.00    -0.077 Br
ENDROOT
TORSDOF 0
