REMARK  1 active torsions:
REMARK  status: ('A' for Active; 'I' for Inactive)
REMARK    1  A    between atoms: C4_4  and  C7_7 
ROOT
HETATM    1  C1  UNL     1     -33.110   8.086   1.244  1.00 20.00     0.075 C 
HETATM    2  C2  UNL     1     -32.673   5.837   2.157  1.00 20.00     0.105 C 
HETATM    3  C3  UNL     1     -33.211   7.234   2.433  1.00 20.00     0.164 C 
HETATM    4  C4  UNL     1     -34.636   5.597   4.048  1.00 20.00     0.113 C 
HETATM    5  N8  UNL     1     -33.031   8.760   0.303  1.00 20.00    -0.196 NA
HETATM    6  S9  UNL     1     -33.090   4.762   3.560  1.00 20.00    -0.151 SA
HETATM    7  S10 UNL     1     -34.938   7.015   2.949  1.00 20.00    -0.133 SA
ENDROOT
BRANCH   4   8
HETATM    8  C7  UNL     1     -34.532   6.067   5.492  1.00 20.00     0.001 C 
HETATM    9  C5  UNL     1     -34.275   4.887   6.429  1.00 20.00     0.011 C 
HETATM   10  C6  UNL     1     -33.431   7.117   5.641  1.00 20.00     0.011 C 
ENDBRANCH   4   8
TORSDOF 1
