REMARK  3 active torsions:
REMARK  status: ('A' for Active; 'I' for Inactive)
REMARK    1  A    between atoms: C1_1  and  C2_2 
REMARK    2  A    between atoms: C1_1  and  O11_11 
REMARK    3  A    between atoms: C8_8  and  N9_9 
ROOT
HETATM    1  C2  UNL     1     -33.866   6.653   3.028  1.00 20.00     0.355 A 
HETATM    2  C3  UNL     1     -33.169   5.625   2.158  1.00 20.00     0.264 A 
HETATM    3  C4  UNL     1     -32.418   4.478   2.738  1.00 20.00     0.046 C 
HETATM    4  N9  UNL     1     -32.631   6.969   2.310  1.00 20.00     0.115 N 
ENDROOT
BRANCH   1   5
HETATM    5  C1  UNL     1     -33.687   6.680   4.480  1.00 20.00     0.294 C 
HETATM    6  O10 UNL     1     -32.765   7.252   5.046  1.00 20.00    -0.263 OA
BRANCH   5   7
HETATM    7  O11 UNL     1     -34.694   5.981   5.076  1.00 20.00    -0.325 OA
HETATM    8  C7  UNL     1     -34.643   5.926   6.506  1.00 20.00     0.213 C 
ENDBRANCH   5   7
ENDBRANCH   1   5
BRANCH   4   9
HETATM    9  C8  UNL     1     -32.848   7.810   1.139  1.00 20.00     0.216 C 
HETATM   10  C5  UNL     1     -31.666   7.663   0.193  1.00 20.00     0.042 C 
HETATM   11  C6  UNL     1     -33.029   9.251   1.595  1.00 20.00     0.042 C 
ENDBRANCH   4   9
TORSDOF 3
