REMARK  0 active torsions:
REMARK  status: ('A' for Active; 'I' for Inactive)
ROOT
HETATM    1  C1  UNL     1     -32.895   8.017   0.955  1.00 20.00    -0.004 C 
HETATM    2  C2  UNL     1     -31.962   7.181   1.659  1.00 20.00    -0.003 C 
HETATM    3  C3  UNL     1     -34.053   8.385   1.515  1.00 20.00    -0.025 C 
HETATM    4  C4  UNL     1     -32.296   6.567   2.803  1.00 20.00    -0.009 C 
HETATM    5  C5  UNL     1     -33.364   6.996   4.941  1.00 20.00     0.140 C 
HETATM    6  C6  UNL     1     -34.460   7.938   2.893  1.00 20.00     0.048 C 
HETATM    7  C7  UNL     1     -33.680   5.930   5.963  1.00 20.00     0.079 C 
HETATM    8  C8  UNL     1     -35.059   5.312   5.793  1.00 20.00     0.008 C 
HETATM    9  C9  UNL     1     -35.609   5.334   4.370  1.00 20.00     0.006 C 
HETATM   10  C10 UNL     1     -34.522   5.405   3.285  1.00 20.00     0.001 C 
HETATM   11  C11 UNL     1     -33.662   6.704   3.458  1.00 20.00     0.044 C 
HETATM   12  C12 UNL     1     -33.743   4.080   3.225  1.00 20.00     0.011 C 
HETATM   13  O13 UNL     1     -32.796   8.033   5.296  1.00 20.00    -0.297 OA
ENDROOT
TORSDOF 0
