REMARK  3 active torsions:
REMARK  status: ('A' for Active; 'I' for Inactive)
REMARK    1  A    between atoms: C1_1  and  C7_7 
REMARK    2  A    between atoms: C1_1  and  N9_9 
REMARK    3  A    between atoms: C7_7  and  C8_8 
ROOT
HETATM    1  C1  UNL     1     -34.337   5.683   4.408  1.00 20.00     0.075 C 
HETATM    2  S10 UNL     1     -33.918   4.155   3.792  1.00 20.00    -0.066 SA
ENDROOT
BRANCH   1   3
HETATM    3  C7  UNL     1     -34.347   6.856   3.405  1.00 20.00     0.077 C 
BRANCH   3   4
HETATM    4  C8  UNL     1     -32.980   7.249   2.771  1.00 20.00    -0.045 C 
HETATM    5  C2  UNL     1     -33.205   8.522   1.926  1.00 20.00     0.015 C 
HETATM    6  C3  UNL     1     -32.415   6.161   1.847  1.00 20.00     0.015 C 
HETATM    7  C4  UNL     1     -31.930   7.575   3.848  1.00 20.00     0.015 C 
ENDBRANCH   3   4
ENDBRANCH   1   3
BRANCH   1   8
HETATM    8  N9  UNL     1     -34.648   5.931   5.751  1.00 20.00    -0.384 N 
HETATM    9  C5  UNL     1     -34.385   7.195   6.439  1.00 20.00     0.149 C 
HETATM   10  C6  UNL     1     -35.142   4.880   6.647  1.00 20.00     0.149 C 
ENDBRANCH   1   8
TORSDOF 3
