REMARK  4 active torsions:
REMARK  status: ('A' for Active; 'I' for Inactive)
REMARK    1  A    between atoms: C1_1  and  C6_6 
REMARK    2  A    between atoms: C1_1  and  C7_7 
REMARK    3  A    between atoms: C6_6  and  C8_8 
REMARK    4  A    between atoms: C7_7  and  C9_9 
ROOT
HETATM    1  C1  UNL     1     -32.700   7.145   3.171  1.00 20.00     0.161 C 
HETATM    2  O10 UNL     1     -31.673   7.589   3.684  1.00 20.00    -0.295 OA
ENDROOT
BRANCH   1   3
HETATM    3  C6  UNL     1     -32.911   7.120   1.664  1.00 20.00     0.085 C 
BRANCH   3   4
HETATM    4  C8  UNL     1     -32.830   8.507   1.011  1.00 20.00    -0.016 C 
HETATM    5  C2  UNL     1     -33.889   9.455   1.579  1.00 20.00     0.010 C 
HETATM    6  C3  UNL     1     -33.004   8.384  -0.504  1.00 20.00     0.010 C 
ENDBRANCH   3   4
ENDBRANCH   1   3
BRANCH   1   7
HETATM    7  C7  UNL     1     -33.813   6.576   4.034  1.00 20.00     0.242 C 
HETATM    8  F11 UNL     1     -33.909   7.275   5.202  1.00 20.00    -0.241 F 
BRANCH   7   9
HETATM    9  C9  UNL     1     -33.619   5.090   4.364  1.00 20.00     0.019 C 
HETATM   10  C4  UNL     1     -34.429   4.672   5.593  1.00 20.00     0.012 C 
HETATM   11  C5  UNL     1     -34.023   4.229   3.165  1.00 20.00     0.012 C 
ENDBRANCH   7   9
ENDBRANCH   1   7
TORSDOF 4
