REMARK  0 active torsions:
REMARK  status: ('A' for Active; 'I' for Inactive)
ROOT
HETATM    1  C1  UNL     1     -31.645   6.890   2.977  1.00 20.00    -0.025 A 
HETATM    2  C2  UNL     1     -32.440   7.293   3.985  1.00 20.00    -0.020 A 
HETATM    3  C3  UNL     1     -32.578   4.510   2.482  1.00 20.00     0.014 C 
HETATM    4  C4  UNL     1     -33.852   4.107   3.217  1.00 20.00     0.070 C 
HETATM    5  C5  UNL     1     -34.080   4.718   6.465  1.00 20.00     0.197 C 
HETATM    6  C6  UNL     1     -35.323   5.475   6.086  1.00 20.00     0.197 C 
HETATM    7  C7  UNL     1     -32.714   6.025   2.343  1.00 20.00     0.021 A 
HETATM    8  C8  UNL     1     -33.634   6.490   3.506  1.00 20.00     0.078 A 
HETATM    9  C9  UNL     1     -34.033   5.212   4.254  1.00 20.00     0.171 C 
HETATM   10  O10 UNL     1     -33.182   4.984   5.388  1.00 20.00    -0.352 OA
HETATM   11  O11 UNL     1     -35.399   5.288   4.674  1.00 20.00    -0.352 OA
ENDROOT
TORSDOF 0
