REMARK  3 active torsions:
REMARK  status: ('A' for Active; 'I' for Inactive)
REMARK    1  A    between atoms: C1_1  and  C7_7 
REMARK    2  A    between atoms: C2_2  and  C8_8 
REMARK    3  A    between atoms: C7_7  and  C9_9 
ROOT
HETATM    1  C1  UNL     1     -33.340   6.925   2.717  1.00 20.00     0.062 A 
HETATM    2  C2  UNL     1     -33.137   6.086   3.946  1.00 20.00     0.064 A 
HETATM    3  S10 UNL     1     -33.730   5.251   2.555  1.00 20.00    -0.157 SA
ENDROOT
BRANCH   1   4
HETATM    4  C7  UNL     1     -32.141   7.462   1.948  1.00 20.00     0.020 C 
BRANCH   4   5
HETATM    5  C9  UNL     1     -32.524   8.236   0.674  1.00 20.00    -0.022 C 
HETATM    6  C5  UNL     1     -33.301   7.372  -0.320  1.00 20.00     0.009 C 
HETATM    7  C6  UNL     1     -33.350   9.470   1.043  1.00 20.00     0.009 C 
ENDBRANCH   4   5
ENDBRANCH   1   4
BRANCH   2   8
HETATM    8  C8  UNL     1     -34.046   6.235   5.116  1.00 20.00    -0.008 C 
HETATM    9  C3  UNL     1     -34.029   4.987   6.020  1.00 20.00     0.011 C 
HETATM   10  C4  UNL     1     -33.695   7.475   5.961  1.00 20.00     0.011 C 
ENDBRANCH   2   8
TORSDOF 3
