REMARK  3 active torsions:
REMARK  status: ('A' for Active; 'I' for Inactive)
REMARK    1  A    between atoms: C1_1  and  C7_7 
REMARK    2  A    between atoms: C1_1  and  N9_9 
REMARK    3  A    between atoms: C7_7  and  C8_8 
ROOT
HETATM    1  C2  UNL     1     -35.026   5.832   5.849  1.00 20.00     0.021 C 
HETATM    2  C3  UNL     1     -33.836   6.582   6.423  1.00 20.00     0.021 C 
HETATM    3  C4  UNL     1     -34.492   5.313   4.517  1.00 20.00     0.123 C 
HETATM    4  C5  UNL     1     -33.229   7.251   5.193  1.00 20.00     0.123 C 
HETATM    5  N9  UNL     1     -33.526   6.326   4.105  1.00 20.00    -0.375 N 
ENDROOT
BRANCH   5   6
HETATM    6  C1  UNL     1     -32.973   6.397   2.866  1.00 20.00     0.075 C 
HETATM    7  S10 UNL     1     -32.742   5.044   1.914  1.00 20.00    -0.066 SA
BRANCH   6   8
HETATM    8  C7  UNL     1     -32.602   7.790   2.406  1.00 20.00     0.069 C 
BRANCH   8   9
HETATM    9  C8  UNL     1     -33.353   8.160   1.125  1.00 20.00     0.002 C 
HETATM   10  C6  UNL     1     -33.015   9.570   0.670  1.00 20.00     0.005 C 
ENDBRANCH   8   9
ENDBRANCH   6   8
ENDBRANCH   5   6
TORSDOF 3
