REMARK  0 active torsions:
REMARK  status: ('A' for Active; 'I' for Inactive)
ROOT
HETATM    1  C1  UNL     1     -32.495   7.911   1.928  1.00 20.00     0.001 C 
HETATM    2  C2  UNL     1     -33.820   7.525   1.274  1.00 20.00     0.001 C 
HETATM    3  C3  UNL     1     -34.539   4.014   4.214  1.00 20.00     0.004 C 
HETATM    4  C4  UNL     1     -34.971   4.703   5.505  1.00 20.00     0.034 C 
HETATM    5  C5  UNL     1     -32.122   6.747   2.840  1.00 20.00     0.012 C 
HETATM    6  C6  UNL     1     -34.244   6.198   1.905  1.00 20.00     0.012 C 
HETATM    7  C7  UNL     1     -33.255   4.629   3.657  1.00 20.00     0.012 C 
HETATM    8  C8  UNL     1     -34.935   6.194   5.399  1.00 20.00     0.152 A 
HETATM    9  C9  UNL     1     -34.161   6.894   4.311  1.00 20.00     0.159 A 
HETATM   10  C10 UNL     1     -33.459   6.098   3.228  1.00 20.00    -0.012 C 
HETATM   11  O11 UNL     1     -33.626   6.749   5.630  1.00 20.00    -0.375 OA
ENDROOT
TORSDOF 0
