REMARK  1 active torsions:
REMARK  status: ('A' for Active; 'I' for Inactive)
REMARK    1  A    between atoms: C2_2  and  C10_10 
ROOT
HETATM    1  C1  UNL     1     -33.998   6.305   1.759  1.00 20.00    -0.017 C 
HETATM    2  C2  UNL     1     -32.937   7.132   1.868  1.00 20.00    -0.068 C 
HETATM    3  C3  UNL     1     -32.696   7.134   4.409  1.00 20.00     0.135 C 
HETATM    4  C4  UNL     1     -34.034   6.644   4.919  1.00 20.00     0.080 C 
HETATM    5  C5  UNL     1     -34.259   5.318   4.175  1.00 20.00     0.017 C 
HETATM    6  C6  UNL     1     -33.506   5.364   2.839  1.00 20.00     0.024 C 
HETATM    7  C7  UNL     1     -32.379   6.394   3.073  1.00 20.00     0.092 C 
HETATM    8  O11 UNL     1     -32.041   8.006   4.969  1.00 20.00    -0.297 OA
ENDROOT
BRANCH   2   9
HETATM    9  C10 UNL     1     -32.501   8.406   1.120  1.00 20.00     0.007 C 
HETATM   10  C8  UNL     1     -32.984   8.322  -0.310  1.00 20.00     0.014 C 
HETATM   11  C9  UNL     1     -33.043   9.619   1.842  1.00 20.00     0.014 C 
ENDBRANCH   2   9
TORSDOF 1
