REMARK  0 active torsions:
REMARK  status: ('A' for Active; 'I' for Inactive)
ROOT
HETATM    1  C1  UNL     1     -33.240   6.548   3.253  1.00 20.00     0.218 C 
HETATM    2  C2  UNL     1     -33.854   5.293   2.668  1.00 20.00     0.105 C 
HETATM    3  C3  UNL     1     -34.772   4.747   3.770  1.00 20.00     0.040 C 
HETATM    4  C4  UNL     1     -35.155   5.453   6.247  1.00 20.00     0.033 A 
HETATM    5  C5  UNL     1     -33.925   4.593   6.232  1.00 20.00     0.033 A 
HETATM    6  C6  UNL     1     -34.281   5.418   5.022  1.00 20.00     0.033 A 
HETATM    7  N7  UNL     1     -33.491   6.532   4.616  1.00 20.00    -0.352 N 
HETATM    8  O8  UNL     1     -32.610   7.384   2.624  1.00 20.00    -0.274 OA
HETATM    9  H17 UNL     1     -33.147   7.239   5.257  1.00 20.00     0.163 HD
ENDROOT
TORSDOF 0
