REMARK  1 active torsions:
REMARK  status: ('A' for Active; 'I' for Inactive)
REMARK    1  A    between atoms: C2_2  and  C4_4 
ROOT
HETATM    1  C1  UNL     1     -34.192   5.286   3.849  1.00 20.00     0.171 A 
HETATM    2  C2  UNL     1     -33.504   6.593   4.197  1.00 20.00     0.175 A 
HETATM    3  C3  UNL     1     -33.703   4.366   2.788  1.00 20.00     0.044 C 
HETATM    4  O5  UNL     1     -34.679   6.546   3.372  1.00 20.00    -0.352 OA
HETATM    5 CL6  UNL     1     -33.690   7.178   5.853  1.00 20.00    -0.084 Cl
ENDROOT
BRANCH   2   6
HETATM    6  C4  UNL     1     -32.278   7.056   3.481  1.00 20.00     0.172 C 
HETATM    7 CL7  UNL     1     -32.691   7.794   1.910  1.00 20.00    -0.126 Cl
ENDBRANCH   2   6
TORSDOF 1
