REMARK  0 active torsions:
REMARK  status: ('A' for Active; 'I' for Inactive)
ROOT
HETATM    1  C1  UNL     1     -34.707   5.682   4.202  1.00 20.00     0.154 C 
HETATM    2  C2  UNL     1     -33.877   4.661   3.457  1.00 20.00     0.081 C 
HETATM    3  C3  UNL     1     -33.238   5.259   2.209  1.00 20.00     0.018 C 
HETATM    4  C4  UNL     1     -32.833   6.728   2.310  1.00 20.00     0.076 C 
HETATM    5  C5  UNL     1     -34.013   6.896   4.778  1.00 20.00     0.212 C 
HETATM    6  O6  UNL     1     -35.910   5.492   4.391  1.00 20.00    -0.295 OA
HETATM    7  S7  UNL     1     -32.408   7.214   4.004  1.00 20.00    -0.141 SA
HETATM    8 CL8  UNL     1     -33.829   6.623   6.521  1.00 20.00    -0.105 Cl
ENDROOT
TORSDOF 0
