REMARK  1 active torsions:
REMARK  status: ('A' for Active; 'I' for Inactive)
REMARK    1  A    between atoms: C2_2  and  C4_4 
ROOT
HETATM    1  C1  UNL     1     -33.159   7.500   2.648  1.00 20.00     0.171 A 
HETATM    2  C2  UNL     1     -33.658   6.196   3.234  1.00 20.00     0.175 A 
HETATM    3  C3  UNL     1     -32.297   7.586   1.438  1.00 20.00     0.044 C 
HETATM    4  O5  UNL     1     -32.525   6.891   3.779  1.00 20.00    -0.352 OA
HETATM    5 CL6  UNL     1     -33.362   4.684   2.382  1.00 20.00    -0.084 Cl
ENDROOT
BRANCH   2   6
HETATM    6  C4  UNL     1     -34.850   6.207   4.134  1.00 20.00     0.172 C 
HETATM    7 CL7  UNL     1     -34.402   6.695   5.790  1.00 20.00    -0.126 Cl
ENDBRANCH   2   6
TORSDOF 1
