REMARK  1 active torsions:
REMARK  status: ('A' for Active; 'I' for Inactive)
REMARK    1  A    between atoms: C7_7  and  C10_10 
ROOT
HETATM    1  C1  UNL     1     -34.124   4.906   6.073  1.00 20.00     0.003 C 
HETATM    2  C2  UNL     1     -33.739   6.187   6.085  1.00 20.00     0.004 C 
HETATM    3  C3  UNL     1     -33.847   4.199   3.662  1.00 20.00     0.036 C 
HETATM    4  C4  UNL     1     -32.678   5.192   3.477  1.00 20.00     0.010 C 
HETATM    5  C5  UNL     1     -34.811   4.641   4.772  1.00 20.00     0.145 C 
HETATM    6  C6  UNL     1     -34.159   6.810   4.790  1.00 20.00     0.149 C 
HETATM    7  C7  UNL     1     -33.082   6.677   3.689  1.00 20.00     0.022 C 
HETATM    8  O11 UNL     1     -35.265   5.963   4.401  1.00 20.00    -0.373 OA
ENDROOT
BRANCH   7   9
HETATM    9  C10 UNL     1     -33.591   7.274   2.372  1.00 20.00    -0.016 C 
HETATM   10  C8  UNL     1     -32.419   7.698   1.493  1.00 20.00     0.010 C 
HETATM   11  C9  UNL     1     -34.479   6.272   1.643  1.00 20.00     0.010 C 
ENDBRANCH   7   9
TORSDOF 1
