REMARK  1 active torsions:
REMARK  status: ('A' for Active; 'I' for Inactive)
REMARK    1  A    between atoms: C4_4  and  C10_10 
ROOT
HETATM    1  C1  UNL     1     -34.422   7.345   5.633  1.00 20.00    -0.003 C 
HETATM    2  C2  UNL     1     -33.908   7.400   4.284  1.00 20.00     0.011 C 
HETATM    3  C3  UNL     1     -34.750   6.285   6.382  1.00 20.00    -0.026 C 
HETATM    4  C4  UNL     1     -33.645   6.430   3.392  1.00 20.00    -0.009 C 
HETATM    5  C5  UNL     1     -33.940   4.983   3.619  1.00 20.00     0.156 C 
HETATM    6  C6  UNL     1     -34.762   4.843   5.987  1.00 20.00     0.035 C 
HETATM    7  C7  UNL     1     -35.085   4.603   4.525  1.00 20.00     0.087 C 
HETATM    8  O11 UNL     1     -33.290   4.118   3.032  1.00 20.00    -0.293 OA
ENDROOT
BRANCH   4   9
HETATM    9  C10 UNL     1     -33.002   6.744   2.069  1.00 20.00     0.014 C 
HETATM   10  C8  UNL     1     -33.903   6.289   0.928  1.00 20.00     0.015 C 
HETATM   11  C9  UNL     1     -32.692   8.233   1.963  1.00 20.00     0.015 C 
ENDBRANCH   4   9
TORSDOF 1
