REMARK  1 active torsions:
REMARK  status: ('A' for Active; 'I' for Inactive)
REMARK    1  A    between atoms: C7_7  and  C10_10 
ROOT
HETATM    1  C1  UNL     1     -34.329   4.655   2.290  1.00 20.00    -0.017 C 
HETATM    2  C2  UNL     1     -33.127   4.950   2.822  1.00 20.00    -0.019 C 
HETATM    3  C3  UNL     1     -35.830   5.631   4.098  1.00 20.00     0.135 C 
HETATM    4  C4  UNL     1     -34.924   5.737   5.305  1.00 20.00     0.080 C 
HETATM    5  C5  UNL     1     -33.722   6.555   4.805  1.00 20.00     0.022 C 
HETATM    6  C6  UNL     1     -34.983   5.916   2.819  1.00 20.00     0.090 C 
HETATM    7  C7  UNL     1     -33.563   6.334   3.287  1.00 20.00    -0.006 C 
HETATM    8  O11 UNL     1     -37.014   5.320   4.172  1.00 20.00    -0.297 OA
ENDROOT
BRANCH   7   9
HETATM    9  C10 UNL     1     -32.892   7.496   2.571  1.00 20.00    -0.009 C 
HETATM   10  C8  UNL     1     -31.628   7.934   3.313  1.00 20.00     0.011 C 
HETATM   11  C9  UNL     1     -32.558   7.124   1.126  1.00 20.00     0.011 C 
ENDBRANCH   7   9
TORSDOF 1
