REMARK  1 active torsions:
REMARK  status: ('A' for Active; 'I' for Inactive)
REMARK    1  A    between atoms: C4_4  and  C10_10 
ROOT
HETATM    1  C1  UNL     1     -34.167   4.809   3.440  1.00 20.00     0.132 C 
HETATM    2  C2  UNL     1     -33.723   5.259   2.073  1.00 20.00     0.087 C 
HETATM    3  C3  UNL     1     -34.527   7.155   3.356  1.00 20.00     0.021 C 
HETATM    4  C4  UNL     1     -34.691   5.945   4.284  1.00 20.00     0.059 C 
HETATM    5  C5  UNL     1     -33.498   6.765   2.274  1.00 20.00    -0.041 C 
HETATM    6  C6  UNL     1     -32.057   7.043   2.732  1.00 20.00     0.015 C 
HETATM    7  C7  UNL     1     -33.757   7.538   0.975  1.00 20.00     0.015 C 
HETATM    8  O11 UNL     1     -34.130   3.642   3.813  1.00 20.00    -0.298 OA
ENDROOT
BRANCH   4   9
HETATM    9  C10 UNL     1     -33.965   6.125   5.607  1.00 20.00    -0.011 C 
HETATM   10  C8  UNL     1     -34.532   7.316   6.385  1.00 20.00     0.010 C 
HETATM   11  C9  UNL     1     -34.049   4.853   6.455  1.00 20.00     0.010 C 
ENDBRANCH   4   9
TORSDOF 1
