REMARK  1 active torsions:
REMARK  status: ('A' for Active; 'I' for Inactive)
REMARK    1  A    between atoms: C8_8  and  C11_11 
ROOT
HETATM    1  C1  UNL     1     -33.627   3.525   3.337  1.00 20.00    -0.079 C 
HETATM    2  C2  UNL     1     -32.750   6.624   2.286  1.00 20.00     0.132 C 
HETATM    3  C3  UNL     1     -34.227   2.337   3.360  1.00 20.00     0.015 C 
HETATM    4  C4  UNL     1     -32.150   4.001   3.186  1.00 20.00     0.047 C 
HETATM    5  C5  UNL     1     -34.198   7.123   2.306  1.00 20.00     0.080 C 
HETATM    6  C6  UNL     1     -35.019   5.815   2.601  1.00 20.00     0.022 C 
HETATM    7  C7  UNL     1     -32.863   5.115   2.434  1.00 20.00     0.072 C 
HETATM    8  C8  UNL     1     -34.081   4.968   3.465  1.00 20.00    -0.004 C 
HETATM    9  O12 UNL     1     -31.764   7.335   2.167  1.00 20.00    -0.298 OA
ENDROOT
BRANCH   8  10
HETATM   10  C11 UNL     1     -34.042   5.474   4.914  1.00 20.00    -0.009 C 
HETATM   11  C9  UNL     1     -33.582   4.362   5.850  1.00 20.00     0.011 C 
HETATM   12  C10 UNL     1     -33.129   6.690   5.024  1.00 20.00     0.011 C 
ENDBRANCH   8  10
TORSDOF 1
