REMARK  0 active torsions:
REMARK  status: ('A' for Active; 'I' for Inactive)
ROOT
HETATM    1  C1  UNL     1     -34.912   4.526   4.967  1.00 20.00     0.147 A 
HETATM    2  C2  UNL     1     -32.721   5.901   2.170  1.00 20.00     0.168 A 
HETATM    3  C3  UNL     1     -34.109   4.935   3.864  1.00 20.00     0.061 A 
HETATM    4  C4  UNL     1     -33.662   6.204   4.100  1.00 20.00     0.134 A 
HETATM    5  N5  UNL     1     -35.104   5.363   5.990  1.00 20.00    -0.220 NA
HETATM    6  N6  UNL     1     -32.872   6.771   3.148  1.00 20.00    -0.244 NA
HETATM    7  S7  UNL     1     -33.512   4.371   2.338  1.00 20.00    -0.078 SA
HETATM    8  S8  UNL     1     -34.261   6.776   5.635  1.00 20.00     0.032 SA
ENDROOT
TORSDOF 0
