REMARK  2 active torsions:
REMARK  status: ('A' for Active; 'I' for Inactive)
REMARK    1  A    between atoms: C1_1  and  C3_3 
REMARK    2  A    between atoms: C3_3  and  C5_5 
ROOT
HETATM    1  C1  UNL     1     -33.538   6.398   4.256  1.00 20.00     0.212 C 
HETATM    2  C2  UNL     1     -34.176   5.331   4.742  1.00 20.00     0.228 C 
HETATM    3  F7  UNL     1     -33.417   7.531   4.978  1.00 20.00    -0.198 F 
HETATM    4  F8  UNL     1     -34.720   5.361   5.979  1.00 20.00    -0.189 F 
HETATM    5 CL9  UNL     1     -34.327   3.884   3.816  1.00 20.00    -0.048 Cl
ENDROOT
BRANCH   1   6
HETATM    6  C3  UNL     1     -32.912   6.446   2.906  1.00 20.00     0.191 C 
HETATM    7  O6  UNL     1     -32.459   5.435   2.374  1.00 20.00    -0.290 OA
BRANCH   6   8
HETATM    8  C5  UNL     1     -32.871   7.809   2.240  1.00 20.00     0.082 C 
HETATM    9  C4  UNL     1     -32.196   7.772   0.879  1.00 20.00     0.013 C 
ENDBRANCH   6   8
ENDBRANCH   1   6
TORSDOF 2
