REMARK  0 active torsions:
REMARK  status: ('A' for Active; 'I' for Inactive)
ROOT
HETATM    1  C1  UNL     1     -33.378   6.505   4.156  1.00 20.00     0.117 A 
HETATM    2  C2  UNL     1     -34.311   5.791   3.522  1.00 20.00    -0.042 A 
HETATM    3  C3  UNL     1     -32.417   6.947   3.141  1.00 20.00     0.186 A 
HETATM    4  C4  UNL     1     -35.436   5.148   4.254  1.00 20.00     0.039 C 
HETATM    5  C5  UNL     1     -34.127   5.690   2.043  1.00 20.00     0.049 A 
HETATM    6  C6  UNL     1     -35.151   5.174   5.761  1.00 20.00     0.031 C 
HETATM    7  C7  UNL     1     -34.519   6.506   6.180  1.00 20.00     0.176 C 
HETATM    8  C8  UNL     1     -32.795   6.412   1.776  1.00 20.00     0.062 A 
HETATM    9  C9  UNL     1     -32.919   7.527   0.752  1.00 20.00     0.018 C 
HETATM   10  O10 UNL     1     -31.447   7.648   3.386  1.00 20.00    -0.290 OA
HETATM   11  O11 UNL     1     -33.294   6.795   5.483  1.00 20.00    -0.347 OA
ENDROOT
TORSDOF 0
