REMARK  2 active torsions:
REMARK  status: ('A' for Active; 'I' for Inactive)
REMARK    1  A    between atoms: C1_1  and  C5_5 
REMARK    2  A    between atoms: C2_2  and  C3_3 
ROOT
HETATM    1  C1  UNL     1     -33.889   5.400   4.211  1.00 20.00     0.134 C 
HETATM    2  C2  UNL     1     -33.152   5.667   3.127  1.00 20.00     0.166 C 
HETATM    3  F7  UNL     1     -32.843   4.694   2.243  1.00 20.00    -0.202 F 
ENDROOT
BRANCH   1   4
HETATM    4  C5  UNL     1     -34.281   6.404   5.239  1.00 20.00     0.410 C 
HETATM    5  F8  UNL     1     -35.031   5.889   6.246  1.00 20.00    -0.167 F 
HETATM    6  F9  UNL     1     -35.001   7.415   4.692  1.00 20.00    -0.167 F 
HETATM    7  F10 UNL     1     -33.189   6.969   5.816  1.00 20.00    -0.167 F 
ENDBRANCH   1   4
BRANCH   2   8
HETATM    8  C3  UNL     1     -32.602   6.998   2.768  1.00 20.00     0.183 C 
HETATM    9  C4  UNL     1     -31.653   7.688   3.714  1.00 20.00     0.099 C 
HETATM   10  O6  UNL     1     -32.928   7.519   1.702  1.00 20.00    -0.290 OA
ENDBRANCH   2   8
TORSDOF 2
