REMARK  1 active torsions:
REMARK  status: ('A' for Active; 'I' for Inactive)
REMARK    1  A    between atoms: C4_4  and  C9_9 
ROOT
HETATM    1  C1  UNL     1     -34.741   4.398   3.405  1.00 20.00     0.007 A 
HETATM    2  C2  UNL     1     -34.997   4.644   4.693  1.00 20.00     0.074 A 
HETATM    3  C3  UNL     1     -33.833   5.224   2.661  1.00 20.00     0.026 A 
HETATM    4  C4  UNL     1     -33.216   6.266   3.242  1.00 20.00     0.018 A 
HETATM    5  C5  UNL     1     -34.333   5.791   5.375  1.00 20.00     0.247 A 
HETATM    6  C8  UNL     1     -32.770   7.697   5.202  1.00 20.00     0.159 C 
HETATM    7  N10 UNL     1     -33.454   6.559   4.591  1.00 20.00    -0.322 N 
HETATM    8  O11 UNL     1     -34.591   5.990   6.562  1.00 20.00    -0.268 OA
ENDROOT
BRANCH   4   9
HETATM    9  C9  UNL     1     -32.266   7.124   2.452  1.00 20.00     0.028 C 
HETATM   10  C6  UNL     1     -31.093   6.287   1.956  1.00 20.00     0.016 C 
HETATM   11  C7  UNL     1     -32.990   7.797   1.291  1.00 20.00     0.016 C 
ENDBRANCH   4   9
TORSDOF 1
