REMARK  0 active torsions:
REMARK  status: ('A' for Active; 'I' for Inactive)
ROOT
HETATM    1  C1  UNL     1     -34.249   5.650   6.188  1.00 20.00    -0.029 A 
HETATM    2  C2  UNL     1     -34.076   6.862   5.652  1.00 20.00    -0.023 A 
HETATM    3  C3  UNL     1     -33.298   5.307   3.068  1.00 20.00     0.155 C 
HETATM    4  C4  UNL     1     -34.639   4.598   5.195  1.00 20.00     0.040 A 
HETATM    5  C5  UNL     1     -34.323   6.828   4.191  1.00 20.00     0.050 A 
HETATM    6  C6  UNL     1     -34.622   5.333   3.857  1.00 20.00     0.071 A 
HETATM    7  C7  UNL     1     -33.080   6.841   3.232  1.00 20.00     0.101 C 
HETATM    8  C8  UNL     1     -33.323   7.620   1.939  1.00 20.00     0.042 C 
HETATM    9  O9  UNL     1     -32.673   4.421   2.523  1.00 20.00    -0.295 OA
HETATM   10 CL10 UNL     1     -31.462   7.216   3.916  1.00 20.00    -0.111 Cl
ENDROOT
TORSDOF 0
