REMARK  1 active torsions:
REMARK  status: ('A' for Active; 'I' for Inactive)
REMARK    1  A    between atoms: C3_3  and  C8_8 
ROOT
HETATM    1  C1  UNL     1     -34.167   5.124   4.509  1.00 20.00     0.145 C 
HETATM    2  C4  UNL     1     -34.228   4.680   3.063  1.00 20.00     0.080 C 
HETATM    3  C5  UNL     1     -33.243   5.474   2.214  1.00 20.00     0.016 C 
HETATM    4  C6  UNL     1     -33.286   7.378   3.865  1.00 20.00     0.036 C 
HETATM    5  C7  UNL     1     -34.281   6.621   4.741  1.00 20.00     0.152 C 
HETATM    6  C8  UNL     1     -33.435   6.987   2.386  1.00 20.00     0.009 C 
HETATM    7  O9  UNL     1     -34.130   4.296   5.418  1.00 20.00    -0.296 OA
HETATM    8 CL10 UNL     1     -33.987   6.993   6.456  1.00 20.00    -0.117 Cl
ENDROOT
BRANCH   6   9
HETATM    9  C3  UNL     1     -32.460   7.750   1.543  1.00 20.00    -0.032 C 
HETATM   10  C2  UNL     1     -32.813   8.596   0.569  1.00 20.00     0.007 C 
ENDBRANCH   6   9
TORSDOF 1
