REMARK  4 active torsions:
REMARK  status: ('A' for Active; 'I' for Inactive)
REMARK    1  A    between atoms: C1_1  and  C3_3 
REMARK    2  A    between atoms: C2_2  and  C7_7 
REMARK    3  A    between atoms: C2_2  and  C8_8 
REMARK    4  A    between atoms: C3_3  and  C9_9 
ROOT
HETATM    1  C1  UNL     1     -33.584   6.428   2.578  1.00 20.00     0.164 C 
HETATM    2  C2  UNL     1     -33.922   6.216   3.863  1.00 20.00    -0.038 C 
HETATM    3  F11 UNL     1     -34.094   5.625   1.615  1.00 20.00    -0.202 F 
ENDROOT
BRANCH   1   4
HETATM    4  C3  UNL     1     -32.691   7.493   2.036  1.00 20.00     0.187 C 
HETATM    5  O10 UNL     1     -31.747   7.940   2.681  1.00 20.00    -0.290 OA
BRANCH   4   6
HETATM    6  C9  UNL     1     -33.004   7.965   0.627  1.00 20.00     0.082 C 
HETATM    7  C6  UNL     1     -32.648   9.425   0.410  1.00 20.00     0.013 C 
ENDBRANCH   4   6
ENDBRANCH   1   4
BRANCH   2   8
HETATM    8  C7  UNL     1     -34.837   5.115   4.353  1.00 20.00     0.033 C 
HETATM    9  C4  UNL     1     -34.075   3.841   4.691  1.00 20.00     0.010 C 
ENDBRANCH   2   8
BRANCH   2  10
HETATM   10  C8  UNL     1     -33.361   7.120   4.945  1.00 20.00     0.033 C 
HETATM   11  C5  UNL     1     -33.849   6.735   6.335  1.00 20.00     0.010 C 
ENDBRANCH   2  10
TORSDOF 4
