REMARK  1 active torsions:
REMARK  status: ('A' for Active; 'I' for Inactive)
REMARK    1  A    between atoms: C5_5  and  C8_8 
ROOT
HETATM    1  C1  UNL     1     -33.423   7.868   3.331  1.00 20.00     0.006 A 
HETATM    2  C2  UNL     1     -33.987   6.828   3.941  1.00 20.00     0.076 A 
HETATM    3  C3  UNL     1     -33.496   5.620   3.269  1.00 20.00     0.171 A 
HETATM    4  C4  UNL     1     -32.528   5.969   2.171  1.00 20.00     0.093 A 
HETATM    5  C5  UNL     1     -32.512   7.504   2.193  1.00 20.00     0.020 A 
HETATM    6  O9  UNL     1     -33.823   4.483   3.572  1.00 20.00    -0.291 OA
HETATM    7 CL10 UNL     1     -35.058   6.818   5.240  1.00 20.00    -0.081 Cl
ENDROOT
BRANCH   5   8
HETATM    8  C8  UNL     1     -32.993   8.104   0.877  1.00 20.00    -0.015 C 
HETATM    9  C6  UNL     1     -33.075   9.627   0.977  1.00 20.00     0.010 C 
HETATM   10  C7  UNL     1     -32.073   7.693  -0.271  1.00 20.00     0.010 C 
ENDBRANCH   5   8
TORSDOF 1
