REMARK  1 active torsions:
REMARK  status: ('A' for Active; 'I' for Inactive)
REMARK    1  A    between atoms: C4_4  and  C7_7 
ROOT
HETATM    1  C1  UNL     1     -34.539   6.057   4.829  1.00 20.00     0.268 C 
HETATM    2  C2  UNL     1     -35.026   4.848   4.084  1.00 20.00     0.184 C 
HETATM    3  C3  UNL     1     -32.770   5.430   2.579  1.00 20.00     0.107 C 
HETATM    4  C4  UNL     1     -33.584   6.710   2.704  1.00 20.00     0.144 C 
HETATM    5  O8  UNL     1     -34.781   6.232   6.020  1.00 20.00    -0.264 OA
HETATM    6  O9  UNL     1     -33.857   6.976   4.096  1.00 20.00    -0.314 OA
HETATM    7  S10 UNL     1     -33.670   3.998   3.247  1.00 20.00    -0.157 SA
ENDROOT
BRANCH   4   8
HETATM    8  C7  UNL     1     -32.800   7.903   2.168  1.00 20.00     0.008 C 
HETATM    9  C5  UNL     1     -32.421   7.685   0.704  1.00 20.00     0.012 C 
HETATM   10  C6  UNL     1     -33.604   9.192   2.326  1.00 20.00     0.012 C 
ENDBRANCH   4   8
TORSDOF 1
