REMARK  0 active torsions:
REMARK  status: ('A' for Active; 'I' for Inactive)
ROOT
HETATM    1  C1  UNL     1     -33.944   6.544   5.066  1.00 20.00    -0.021 C 
HETATM    2  C2  UNL     1     -34.560   5.563   4.382  1.00 20.00    -0.087 C 
HETATM    3  C3  UNL     1     -32.854   7.396   4.477  1.00 20.00     0.068 C 
HETATM    4  C4  UNL     1     -34.172   5.212   2.962  1.00 20.00     0.036 C 
HETATM    5  C5  UNL     1     -32.796   5.751   2.555  1.00 20.00     0.045 C 
HETATM    6  C6  UNL     1     -32.779   8.350   2.043  1.00 20.00     0.153 A 
HETATM    7  C7  UNL     1     -32.654   7.176   3.001  1.00 20.00     0.090 A 
HETATM    8  C8  UNL     1     -35.679   4.761   4.978  1.00 20.00     0.043 C 
HETATM    9  C9  UNL     1     -33.057   8.196   0.591  1.00 20.00     0.042 C 
HETATM   10  O10 UNL     1     -31.505   7.851   2.464  1.00 20.00    -0.369 OA
ENDROOT
TORSDOF 0
