REMARK  0 active torsions:
REMARK  status: ('A' for Active; 'I' for Inactive)
ROOT
HETATM    1  C1  UNL     1     -31.926   7.674   4.000  1.00 20.00     0.050 C 
HETATM    2  C2  UNL     1     -31.833   8.156   2.755  1.00 20.00    -0.014 C 
HETATM    3  C3  UNL     1     -32.964   6.675   4.346  1.00 20.00     0.188 C 
HETATM    4  C4  UNL     1     -33.991   7.018   2.094  1.00 20.00     0.064 C 
HETATM    5  C5  UNL     1     -32.756   7.813   1.606  1.00 20.00    -0.026 C 
HETATM    6  C6  UNL     1     -33.734   6.013   3.219  1.00 20.00     0.164 C 
HETATM    7  C7  UNL     1     -31.971   7.041   0.531  1.00 20.00     0.019 C 
HETATM    8  C8  UNL     1     -33.255   9.127   0.967  1.00 20.00     0.019 C 
HETATM    9  C9  UNL     1     -33.010   4.744   2.788  1.00 20.00     0.060 C 
HETATM   10  O10 UNL     1     -33.146   6.369   5.523  1.00 20.00    -0.290 OA
HETATM   11  F11 UNL     1     -34.964   5.617   3.676  1.00 20.00    -0.235 F 
ENDROOT
TORSDOF 0
