REMARK  1 active torsions:
REMARK  status: ('A' for Active; 'I' for Inactive)
REMARK    1  A    between atoms: C7_7  and  C11_11 
ROOT
HETATM    1  C1  UNL     1     -34.229   5.202   6.168  1.00 20.00    -0.021 C 
HETATM    2  C2  UNL     1     -34.003   6.309   5.432  1.00 20.00    -0.053 C 
HETATM    3  C3  UNL     1     -34.302   3.833   5.540  1.00 20.00     0.034 C 
HETATM    4  C4  UNL     1     -33.085   4.831   3.612  1.00 20.00     0.050 C 
HETATM    5  C5  UNL     1     -35.388   4.553   3.344  1.00 20.00     0.174 C 
HETATM    6  C6  UNL     1     -34.188   3.865   4.001  1.00 20.00     0.016 C 
HETATM    7  C7  UNL     1     -33.795   6.154   3.927  1.00 20.00     0.087 C 
HETATM    8  C8  UNL     1     -34.021   7.675   6.048  1.00 20.00     0.046 C 
HETATM    9  O12 UNL     1     -35.114   5.972   3.356  1.00 20.00    -0.375 OA
ENDROOT
BRANCH   7  10
HETATM   10  C11 UNL     1     -33.106   7.327   3.238  1.00 20.00     0.016 C 
HETATM   11  C9  UNL     1     -31.729   7.579   3.851  1.00 20.00     0.013 C 
HETATM   12  C10 UNL     1     -32.985   7.075   1.736  1.00 20.00     0.013 C 
ENDBRANCH   7  10
TORSDOF 1
