REMARK  2 active torsions:
REMARK  status: ('A' for Active; 'I' for Inactive)
REMARK    1  A    between atoms: C2_2  and  C3_3 
REMARK    2  A    between atoms: C3_3  and  O11_11 
ROOT
HETATM    1  C1  UNL     1     -32.766   6.405   2.491  1.00 20.00    -0.008 C 
HETATM    2  C2  UNL     1     -33.612   5.840   3.358  1.00 20.00     0.020 C 
HETATM    3  C4  UNL     1     -33.823   8.162   3.668  1.00 20.00     0.022 C 
HETATM    4  C5  UNL     1     -32.618   7.872   2.756  1.00 20.00     0.006 C 
HETATM    5  C6  UNL     1     -34.189   6.817   4.344  1.00 20.00    -0.014 C 
HETATM    6  C7  UNL     1     -32.637   8.714   1.489  1.00 20.00     0.014 C 
HETATM    7  C8  UNL     1     -33.506   6.682   5.711  1.00 20.00     0.020 C 
HETATM    8  C9  UNL     1     -35.709   6.696   4.501  1.00 20.00     0.020 C 
ENDROOT
BRANCH   2   9
HETATM    9  C3  UNL     1     -33.880   4.411   3.338  1.00 20.00     0.172 C 
HETATM   10  O10 UNL     1     -34.178   3.740   4.318  1.00 20.00    -0.646 OA
BRANCH   9  11
HETATM   11  O11 UNL     1     -33.751   3.933   2.079  1.00 20.00    -0.773 OA
HETATM   12  H25 UNL     1     -33.924   2.969   2.026  1.00 20.00     0.167 HD
ENDBRANCH   9  11
ENDBRANCH   2   9
TORSDOF 2
