REMARK  1 active torsions:
REMARK  status: ('A' for Active; 'I' for Inactive)
REMARK    1  A    between atoms: C7_7  and  C10_10 
ROOT
HETATM    1  C1  UNL     1     -32.702   8.069   4.730  1.00 20.00    -0.023 C 
HETATM    2  C2  UNL     1     -33.647   8.116   3.729  1.00 20.00    -0.012 C 
HETATM    3  C3  UNL     1     -35.171   5.839   4.198  1.00 20.00     0.140 C 
HETATM    4  C4  UNL     1     -34.920   5.108   5.533  1.00 20.00     0.080 C 
HETATM    5  C5  UNL     1     -33.532   5.678   6.006  1.00 20.00     0.017 C 
HETATM    6  C6  UNL     1     -33.576   7.078   5.443  1.00 20.00     0.028 C 
HETATM    7  C7  UNL     1     -33.858   6.620   3.925  1.00 20.00     0.048 C 
HETATM    8  O11 UNL     1     -36.198   5.755   3.543  1.00 20.00    -0.297 OA
ENDROOT
BRANCH   7   9
HETATM    9  C10 UNL     1     -32.921   5.784   3.031  1.00 20.00    -0.002 C 
HETATM   10  C8  UNL     1     -33.570   4.448   2.700  1.00 20.00     0.011 C 
HETATM   11  C9  UNL     1     -32.580   6.557   1.765  1.00 20.00     0.011 C 
ENDBRANCH   7   9
TORSDOF 1
