REMARK  1 active torsions:
REMARK  status: ('A' for Active; 'I' for Inactive)
REMARK    1  A    between atoms: C2_2  and  C7_7 
ROOT
HETATM    1  C3  UNL     1     -34.194   5.184   3.670  1.00 20.00     0.034 C 
HETATM    2  C4  UNL     1     -33.157   7.092   4.924  1.00 20.00     0.034 C 
HETATM    3  C5  UNL     1     -35.125   4.997   4.862  1.00 20.00     0.168 C 
HETATM    4  C6  UNL     1     -34.146   6.800   6.047  1.00 20.00     0.168 C 
HETATM    5  C7  UNL     1     -33.723   6.631   3.587  1.00 20.00     0.011 C 
HETATM    6  O8  UNL     1     -34.490   5.415   6.070  1.00 20.00    -0.391 OA
ENDROOT
BRANCH   5   7
HETATM    7  C2  UNL     1     -32.621   6.714   2.550  1.00 20.00    -0.032 C 
HETATM    8  C1  UNL     1     -32.683   7.472   1.450  1.00 20.00     0.007 C 
ENDBRANCH   5   7
TORSDOF 1
