REMARK  2 active torsions:
REMARK  status: ('A' for Active; 'I' for Inactive)
REMARK    1  A    between atoms: C6_6  and  C9_9 
REMARK    2  A    between atoms: C6_6  and  C10_10 
ROOT
HETATM    1  C1  UNL     1     -34.082   6.977   1.615  1.00 20.00     0.047 C 
HETATM    2  C2  UNL     1     -34.436   6.401   2.770  1.00 20.00    -0.014 C 
HETATM    3  C3  UNL     1     -32.739   7.585   1.461  1.00 20.00     0.149 C 
HETATM    4  C4  UNL     1     -31.755   7.463   2.602  1.00 20.00     0.084 C 
HETATM    5  C5  UNL     1     -32.473   7.436   3.946  1.00 20.00     0.021 C 
HETATM    6  C6  UNL     1     -33.576   6.357   4.016  1.00 20.00    -0.023 C 
HETATM    7  O11 UNL     1     -32.430   8.118   0.397  1.00 20.00    -0.293 OA
ENDROOT
BRANCH   6   8
HETATM    8  C9  UNL     1     -34.451   6.631   5.252  1.00 20.00     0.009 C 
HETATM    9  C7  UNL     1     -33.645   6.597   6.504  1.00 20.00     0.006 C 
ENDBRANCH   6   8
BRANCH   6  10
HETATM   10  C10 UNL     1     -32.962   4.952   4.146  1.00 20.00     0.009 C 
HETATM   11  C8  UNL     1     -34.019   3.909   4.253  1.00 20.00     0.006 C 
ENDBRANCH   6  10
TORSDOF 2
