REMARK  1 active torsions:
REMARK  status: ('A' for Active; 'I' for Inactive)
REMARK    1  A    between atoms: C5_5  and  C10_10 
ROOT
HETATM    1  C6  UNL     1     -33.805   4.442   5.358  1.00 20.00     0.005 C 
HETATM    2  C7  UNL     1     -33.934   5.903   5.816  1.00 20.00     0.005 C 
HETATM    3  C8  UNL     1     -32.980   5.171   3.100  1.00 20.00     0.014 C 
HETATM    4  C9  UNL     1     -35.191   5.627   3.829  1.00 20.00     0.010 C 
HETATM    5  C10 UNL     1     -33.000   6.631   3.612  1.00 20.00     0.023 C 
HETATM    6  C11 UNL     1     -34.147   4.515   3.861  1.00 20.00    -0.013 C 
HETATM    7  C12 UNL     1     -34.268   6.647   4.505  1.00 20.00    -0.006 C 
ENDROOT
BRANCH   5   8
HETATM    8  C5  UNL     1     -32.943   7.639   2.476  1.00 20.00    -0.051 A 
HETATM    9  C1  UNL     1     -31.874   7.630   1.588  1.00 20.00     0.026 A 
HETATM   10  C3  UNL     1     -31.869   8.568   0.569  1.00 20.00     0.116 A 
HETATM   11  N13 UNL     1     -32.840   9.491   0.385  1.00 20.00    -0.273 NA
HETATM   12  C4  UNL     1     -33.863   9.469   1.268  1.00 20.00     0.116 A 
HETATM   13  C2  UNL     1     -33.961   8.573   2.320  1.00 20.00     0.026 A 
ENDBRANCH   5   8
TORSDOF 1
