REMARK  3 active torsions:
REMARK  status: ('A' for Active; 'I' for Inactive)
REMARK    1  A    between atoms: C1_1  and  C3_3 
REMARK    2  A    between atoms: C2_2  and  C3_3 
REMARK    3  A    between atoms: C2_2  and  S6_6 
ROOT
HETATM    1  C3  UNL     1     -33.834   6.047   3.960  1.00 20.00     0.192 C 
HETATM    2 CL7  UNL     1     -33.592   4.353   3.412  1.00 20.00    -0.113 Cl
ENDROOT
BRANCH   1   3
HETATM    3  C1  UNL     1     -34.234   5.934   5.439  1.00 20.00     0.192 C 
HETATM    4  O4  UNL     1     -34.002   6.970   6.127  1.00 20.00    -0.647 OA
HETATM    5  O5  UNL     1     -34.739   4.834   5.797  1.00 20.00    -0.647 OA
ENDBRANCH   1   3
BRANCH   1   6
HETATM    6  C2  UNL     1     -32.570   6.839   3.647  1.00 20.00     0.102 C 
BRANCH   6   7
HETATM    7  S6  UNL     1     -32.255   6.901   1.855  1.00 20.00    -0.180 SA
HETATM    8  H11 UNL     1     -31.135   7.631   1.938  1.00 20.00     0.101 HD
ENDBRANCH   6   7
ENDBRANCH   1   6
TORSDOF 3
