REMARK  2 active torsions:
REMARK  status: ('A' for Active; 'I' for Inactive)
REMARK    1  A    between atoms: C5_5  and  C6_6 
REMARK    2  A    between atoms: C6_6  and  C7_7 
ROOT
HETATM    1  C1  UNL     1     -35.922   5.621   4.136  1.00 20.00     0.068 C 
HETATM    2  C3  UNL     1     -34.047   4.142   4.737  1.00 20.00     0.031 C 
HETATM    3  C4  UNL     1     -34.823   5.926   6.306  1.00 20.00     0.031 C 
HETATM    4  C7  UNL     1     -34.610   5.569   4.823  1.00 20.00     0.042 C 
HETATM    5  N8  UNL     1     -36.950   5.662   3.599  1.00 20.00    -0.196 NA
ENDROOT
BRANCH   4   6
HETATM    6  C6  UNL     1     -33.639   6.607   4.203  1.00 20.00     0.023 C 
BRANCH   6   7
HETATM    7  C5  UNL     1     -33.297   6.386   2.723  1.00 20.00    -0.003 C 
HETATM    8  C2  UNL     1     -32.289   7.414   2.231  1.00 20.00     0.005 C 
ENDBRANCH   6   7
ENDBRANCH   4   6
TORSDOF 2
