REMARK  3 active torsions:
REMARK  status: ('A' for Active; 'I' for Inactive)
REMARK    1  A    between atoms: C1_1  and  C5_5 
REMARK    2  A    between atoms: C2_2  and  C6_6 
REMARK    3  A    between atoms: C6_6  and  O7_7 
ROOT
HETATM    1  C3  UNL     1     -35.998   5.099   3.853  1.00 20.00     0.060 C 
HETATM    2  C4  UNL     1     -34.581   5.821   5.797  1.00 20.00     0.060 C 
HETATM    3  C6  UNL     1     -34.576   5.191   4.406  1.00 20.00     0.114 C 
ENDROOT
BRANCH   3   4
HETATM    4  C2  UNL     1     -33.716   5.968   3.496  1.00 20.00    -0.068 C 
HETATM    5  C1  UNL     1     -33.017   6.602   2.753  1.00 20.00    -0.088 C 
BRANCH   5   6
HETATM    6  C5  UNL     1     -32.163   7.369   1.851  1.00 20.00     0.208 C 
HETATM    7 CL8  UNL     1     -33.153   8.581   1.014  1.00 20.00    -0.117 Cl
ENDBRANCH   5   6
ENDBRANCH   3   4
BRANCH   3   8
HETATM    8  O7  UNL     1     -34.054   3.868   4.539  1.00 20.00    -0.378 OA
HETATM    9  H17 UNL     1     -34.649   3.399   5.142  1.00 20.00     0.211 HD
ENDBRANCH   3   8
TORSDOF 3
