REMARK  2 active torsions:
REMARK  status: ('A' for Active; 'I' for Inactive)
REMARK    1  A    between atoms: C5_5  and  O8_8 
REMARK    2  A    between atoms: C6_6  and  O8_8 
ROOT
HETATM    1  C1  UNL     1     -33.182   5.366   2.710  1.00 20.00     0.097 C 
HETATM    2  C3  UNL     1     -35.085   6.024   4.128  1.00 20.00     0.062 C 
HETATM    3  C4  UNL     1     -32.813   7.054   4.464  1.00 20.00     0.062 C 
HETATM    4  C6  UNL     1     -33.798   6.484   3.443  1.00 20.00     0.141 C 
HETATM    5  N7  UNL     1     -32.696   4.485   2.132  1.00 20.00    -0.194 NA
ENDROOT
BRANCH   4   6
HETATM    6  O8  UNL     1     -34.126   7.513   2.510  1.00 20.00    -0.367 OA
BRANCH   6   7
HETATM    7  C5  UNL     1     -32.971   7.984   1.834  1.00 20.00     0.165 C 
HETATM    8  C2  UNL     1     -33.377   9.070   0.861  1.00 20.00     0.033 C 
ENDBRANCH   6   7
ENDBRANCH   4   6
TORSDOF 2
