REMARK  0 active torsions:
REMARK  status: ('A' for Active; 'I' for Inactive)
ROOT
HETATM    1  C1  UNL     1     -33.758   5.020   1.961  1.00 20.00     0.017 A 
HETATM    2  C2  UNL     1     -33.404   5.914   0.950  1.00 20.00     0.025 A 
HETATM    3  C3  UNL     1     -32.879   7.633   2.597  1.00 20.00     0.032 A 
HETATM    4  C4  UNL     1     -33.660   5.466   3.266  1.00 20.00     0.016 A 
HETATM    5  C5  UNL     1     -33.236   6.747   3.602  1.00 20.00    -0.038 A 
HETATM    6  C6  UNL     1     -32.966   7.211   1.265  1.00 20.00     0.034 A 
HETATM    7  C7  UNL     1     -33.954   4.744   4.492  1.00 20.00     0.160 A 
HETATM    8  C8  UNL     1     -33.664   5.627   5.681  1.00 20.00     0.093 A 
HETATM    9  C9  UNL     1     -33.220   6.984   5.086  1.00 20.00     0.023 A 
HETATM   10  C10 UNL     1     -34.148   8.119   5.506  1.00 20.00     0.015 C 
HETATM   11  O11 UNL     1     -34.361   3.596   4.530  1.00 20.00    -0.292 OA
HETATM   12 CL12 UNL     1     -32.532   8.294  -0.002  1.00 20.00    -0.084 Cl
ENDROOT
TORSDOF 0
