REMARK  4 active torsions:
REMARK  status: ('A' for Active; 'I' for Inactive)
REMARK    1  A    between atoms: C1_1  and  C5_5 
REMARK       I    between atoms: C1_1  and  N9_9 
REMARK    2  A    between atoms: C6_6  and  C8_8 
REMARK    3  A    between atoms: C7_7  and  N9_9 
REMARK    4  A    between atoms: C8_8  and  N9_9 
ROOT
HETATM    1  C1  UNL     1     -33.814   6.207   4.383  1.00 20.00     0.219 C 
HETATM    2  N9  UNL     1     -33.394   6.093   3.054  1.00 20.00    -0.353 N 
HETATM    3  O10 UNL     1     -33.440   7.109   5.138  1.00 20.00    -0.273 OA
ENDROOT
BRANCH   2   4
HETATM    4  C7  UNL     1     -33.849   5.018   2.180  1.00 20.00     0.121 C 
HETATM    5  C4  UNL     1     -32.944   3.837   2.264  1.00 20.00     0.026 C 
ENDBRANCH   2   4
BRANCH   2   6
HETATM    6  C8  UNL     1     -32.468   7.042   2.441  1.00 20.00     0.125 C 
BRANCH   6   7
HETATM    7  C6  UNL     1     -33.187   8.215   1.785  1.00 20.00     0.015 C 
HETATM    8  C3  UNL     1     -32.231   9.197   1.125  1.00 20.00     0.006 C 
ENDBRANCH   6   7
ENDBRANCH   2   6
BRANCH   1   9
HETATM    9  C5  UNL     1     -34.780   5.139   4.877  1.00 20.00     0.098 C 
HETATM   10  C2  UNL     1     -35.172   5.331   6.333  1.00 20.00     0.014 C 
ENDBRANCH   1   9
TORSDOF 4
