REMARK  3 active torsions:
REMARK  status: ('A' for Active; 'I' for Inactive)
REMARK    1  A    between atoms: C1_1  and  C4_4 
REMARK    2  A    between atoms: C4_4  and  C5_5 
REMARK    3  A    between atoms: C5_5  and  C6_6 
ROOT
HETATM    1  C5  UNL     1     -32.795   8.714   1.881  1.00 20.00     0.035 C 
ENDROOT
BRANCH   1   2
HETATM    2  C4  UNL     1     -32.422   7.254   1.611  1.00 20.00     0.115 C 
BRANCH   2   3
HETATM    3  C1  UNL     1     -33.066   6.235   2.560  1.00 20.00     0.172 C 
HETATM    4  O7  UNL     1     -33.280   6.618   3.743  1.00 20.00    -0.648 OA
HETATM    5  O8  UNL     1     -33.304   5.114   2.026  1.00 20.00    -0.648 OA
ENDBRANCH   2   3
ENDBRANCH   1   2
BRANCH   1   6
HETATM    6  C6  UNL     1     -32.097   9.765   0.987  1.00 20.00     0.030 C 
HETATM    7  C2  UNL     1     -32.512   9.543  -0.474  1.00 20.00     0.032 C 
HETATM    8  C3  UNL     1     -32.437  11.200   1.401  1.00 20.00     0.032 C 
HETATM    9 CL9  UNL     1     -30.310   9.559   1.081  1.00 20.00    -0.120 Cl
ENDBRANCH   1   6
TORSDOF 3
