REMARK  1 active torsions:
REMARK  status: ('A' for Active; 'I' for Inactive)
REMARK    1  A    between atoms: C1_1  and  C5_5 
ROOT
HETATM    1  C2  UNL     1     -33.610   6.131   6.255  1.00 20.00     0.006 C 
HETATM    2  C3  UNL     1     -34.989   6.322   5.602  1.00 20.00     0.011 C 
HETATM    3  C4  UNL     1     -32.502   7.037   4.230  1.00 20.00     0.017 C 
HETATM    4  C5  UNL     1     -33.891   7.280   3.602  1.00 20.00     0.056 C 
HETATM    5  C6  UNL     1     -32.714   5.746   5.058  1.00 20.00    -0.005 C 
HETATM    6  C7  UNL     1     -34.706   6.040   4.094  1.00 20.00    -0.027 C 
HETATM    7  C8  UNL     1     -33.649   4.892   4.166  1.00 20.00    -0.036 C 
HETATM    8  C9  UNL     1     -35.984   5.754   3.325  1.00 20.00     0.016 C 
HETATM    9  C10 UNL     1     -34.146   3.591   4.834  1.00 20.00     0.016 C 
HETATM   10  C11 UNL     1     -33.007   4.452   2.837  1.00 20.00     0.016 C 
ENDROOT
BRANCH   4  11
HETATM   11  C1  UNL     1     -33.811   7.490   2.119  1.00 20.00     0.236 C 
HETATM   12  O12 UNL     1     -32.833   7.969   1.556  1.00 20.00    -0.306 OA
ENDBRANCH   4  11
TORSDOF 1
