REMARK  0 active torsions:
REMARK  status: ('A' for Active; 'I' for Inactive)
ROOT
HETATM    1  C1  UNL     1     -33.400   7.045   5.110  1.00 20.00     0.148 A 
HETATM    2  C2  UNL     1     -34.124   5.260   3.741  1.00 20.00     0.148 A 
HETATM    3  C3  UNL     1     -33.589   6.413   6.273  1.00 20.00     0.074 A 
HETATM    4  C4  UNL     1     -34.398   4.419   4.744  1.00 20.00     0.074 A 
HETATM    5  O5  UNL     1     -33.641   6.539   3.858  1.00 20.00    -0.334 OA
HETATM    6  S6  UNL     1     -34.188   4.799   6.416  1.00 20.00    -0.110 SA
ENDROOT
TORSDOF 0
