REMARK  0 active torsions:
REMARK  status: ('A' for Active; 'I' for Inactive)
ROOT
HETATM    1  C1  UNL     1     -32.584   7.058   3.767  1.00 20.00     0.066 C 
HETATM    2  C2  UNL     1     -34.202   4.135   5.193  1.00 20.00     0.034 C 
HETATM    3  C3  UNL     1     -34.179   5.531   5.818  1.00 20.00     0.036 C 
HETATM    4  C4  UNL     1     -33.935   5.129   2.901  1.00 20.00     0.053 C 
HETATM    5  C5  UNL     1     -33.927   6.551   3.480  1.00 20.00     0.124 C 
HETATM    6  C6  UNL     1     -34.885   4.399   3.853  1.00 20.00     0.123 C 
HETATM    7  C7  UNL     1     -34.816   6.387   4.719  1.00 20.00     0.139 C 
HETATM    8  N8  UNL     1     -31.520   7.460   3.994  1.00 20.00    -0.197 NA
HETATM    9  O9  UNL     1     -35.806   5.457   4.208  1.00 20.00    -0.379 OA
ENDROOT
TORSDOF 0
