REMARK  1 active torsions:
REMARK  status: ('A' for Active; 'I' for Inactive)
REMARK    1  A    between atoms: C3_3  and  C5_5 
ROOT
HETATM    1  C1  UNL     1     -33.373   5.237   2.450  1.00 20.00    -0.015 C 
HETATM    2  C2  UNL     1     -33.675   4.463   3.497  1.00 20.00    -0.021 C 
HETATM    3  C4  UNL     1     -34.114   6.698   4.161  1.00 20.00     0.032 C 
HETATM    4  C5  UNL     1     -33.783   6.652   2.668  1.00 20.00     0.110 C 
HETATM    5  C6  UNL     1     -34.345   5.233   4.601  1.00 20.00    -0.029 C 
HETATM    6  C7  UNL     1     -35.839   4.893   4.657  1.00 20.00     0.019 C 
HETATM    7  C8  UNL     1     -33.689   4.953   5.956  1.00 20.00     0.019 C 
ENDROOT
BRANCH   4   8
HETATM    8  C3  UNL     1     -32.602   7.541   2.357  1.00 20.00     0.180 C 
HETATM    9  O9  UNL     1     -31.554   7.296   3.017  1.00 20.00    -0.647 OA
HETATM   10  O10 UNL     1     -32.817   8.418   1.474  1.00 20.00    -0.647 OA
ENDBRANCH   4   8
TORSDOF 1
