REMARK  0 active torsions:
REMARK  status: ('A' for Active; 'I' for Inactive)
ROOT
HETATM    1  C1  UNL     1     -33.463   6.117   3.970  1.00 20.00     0.080 C 
HETATM    2  C2  UNL     1     -34.044   3.718   3.975  1.00 20.00     0.043 C 
HETATM    3  C3  UNL     1     -35.847   5.477   3.981  1.00 20.00     0.043 C 
HETATM    4  C4  UNL     1     -34.436   5.119   4.441  1.00 20.00     0.099 C 
HETATM    5  N5  UNL     1     -32.697   6.904   3.594  1.00 20.00    -0.196 NA
HETATM    6 BR6  UNL     1     -34.430   5.118   6.413  1.00 20.00    -0.070 Br
ENDROOT
TORSDOF 0
