REMARK  0 active torsions:
REMARK  status: ('A' for Active; 'I' for Inactive)
ROOT
HETATM    1  C1  UNL     1     -32.817   7.447   1.315  1.00 20.00     0.064 C 
HETATM    2  C2  UNL     1     -33.827   6.588   4.874  1.00 20.00     0.128 C 
HETATM    3  C3  UNL     1     -34.585   5.302   4.637  1.00 20.00     0.078 C 
HETATM    4  C4  UNL     1     -33.570   7.453   3.660  1.00 20.00     0.097 C 
HETATM    5  C5  UNL     1     -33.964   4.520   3.488  1.00 20.00     0.009 C 
HETATM    6  C6  UNL     1     -33.805   5.380   2.236  1.00 20.00     0.020 C 
HETATM    7  C7  UNL     1     -32.958   6.626   2.529  1.00 20.00     0.100 C 
HETATM    8  N8  UNL     1     -32.706   8.094   0.358  1.00 20.00    -0.197 NA
HETATM    9  O9  UNL     1     -33.527   6.960   6.008  1.00 20.00    -0.298 OA
ENDROOT
TORSDOF 0
