REMARK  3 active torsions:
REMARK  status: ('A' for Active; 'I' for Inactive)
REMARK    1  A    between atoms: C1_1  and  C2_2 
REMARK    2  A    between atoms: C1_1  and  O10_10 
REMARK    3  A    between atoms: C3_3  and  C7_7 
ROOT
HETATM    1  C2  UNL     1     -33.361   7.332   3.208  1.00 20.00     0.256 A 
HETATM    2  C3  UNL     1     -32.895   6.984   1.808  1.00 20.00     0.093 A 
HETATM    3  C4  UNL     1     -33.158   5.634   1.219  1.00 20.00     0.049 C 
HETATM    4  O9  UNL     1     -32.001   6.961   2.928  1.00 20.00    -0.359 OA
ENDROOT
BRANCH   1   5
HETATM    5  C1  UNL     1     -34.070   6.367   4.048  1.00 20.00     0.290 C 
HETATM    6  O8  UNL     1     -34.861   5.537   3.619  1.00 20.00    -0.262 OA
BRANCH   5   7
HETATM    7  O10 UNL     1     -33.710   6.544   5.350  1.00 20.00    -0.324 OA
HETATM    8  C6  UNL     1     -34.333   5.660   6.287  1.00 20.00     0.213 C 
ENDBRANCH   5   7
ENDBRANCH   1   5
BRANCH   2   9
HETATM    9  C7  UNL     1     -32.624   8.094   0.843  1.00 20.00     0.036 C 
HETATM   10  C5  UNL     1     -33.865   8.568   0.135  1.00 20.00     0.008 C 
ENDBRANCH   2   9
TORSDOF 3
