REMARK  2 active torsions:
REMARK  status: ('A' for Active; 'I' for Inactive)
REMARK    1  A    between atoms: C2_2  and  C3_3 
REMARK    2  A    between atoms: C3_3  and  C4_4 
ROOT
HETATM    1  C3  UNL     1     -33.787   6.410   4.493  1.00 20.00     0.254 C 
HETATM    2  O5  UNL     1     -34.267   7.145   5.351  1.00 20.00    -0.283 OA
ENDROOT
BRANCH   1   3
HETATM    3  C2  UNL     1     -32.588   6.790   3.701  1.00 20.00     0.049 C 
HETATM    4  C1  UNL     1     -32.648   6.884   2.370  1.00 20.00     0.015 C 
ENDBRANCH   1   3
BRANCH   1   5
HETATM    5  C4  UNL     1     -34.383   5.067   4.184  1.00 20.00     0.455 C 
HETATM    6  F6  UNL     1     -33.698   4.421   3.206  1.00 20.00    -0.163 F 
HETATM    7  F7  UNL     1     -34.385   4.251   5.269  1.00 20.00    -0.163 F 
HETATM    8  F8  UNL     1     -35.669   5.164   3.764  1.00 20.00    -0.163 F 
ENDBRANCH   1   5
TORSDOF 2
