REMARK  0 active torsions:
REMARK  status: ('A' for Active; 'I' for Inactive)
ROOT
HETATM    1  C1  UNL     1     -33.637   5.282   3.217  1.00 20.00     0.050 C 
HETATM    2  C2  UNL     1     -32.590   7.192   4.569  1.00 20.00     0.050 C 
HETATM    3  C3  UNL     1     -32.214   7.084   1.998  1.00 20.00     0.207 A 
HETATM    4  C4  UNL     1     -34.925   5.282   4.033  1.00 20.00     0.077 C 
HETATM    5  C5  UNL     1     -33.799   7.334   5.487  1.00 20.00     0.077 C 
HETATM    6  C6  UNL     1     -32.961   6.624   3.228  1.00 20.00     0.084 A 
HETATM    7  O7  UNL     1     -33.524   7.578   2.316  1.00 20.00    -0.375 OA
HETATM    8  S8  UNL     1     -34.616   5.733   5.769  1.00 20.00    -0.169 SA
ENDROOT
TORSDOF 0
