REMARK  2 active torsions:
REMARK  status: ('A' for Active; 'I' for Inactive)
REMARK    1  A    between atoms: C2_2  and  C6_6 
REMARK    2  A    between atoms: C6_6  and  N7_7 
ROOT
HETATM    1  C3  UNL     1     -35.166   5.398   6.233  1.00 20.00     0.060 C 
HETATM    2  C4  UNL     1     -34.244   6.601   5.952  1.00 20.00     0.274 C 
HETATM    3  C5  UNL     1     -35.174   5.228   4.702  1.00 20.00     0.274 C 
HETATM    4  N7  UNL     1     -33.862   5.925   4.685  1.00 20.00     0.093 N 
ENDROOT
BRANCH   4   5
HETATM    5  C6  UNL     1     -33.804   6.884   3.588  1.00 20.00     0.317 C 
BRANCH   5   6
HETATM    6  C2  UNL     1     -32.984   6.390   2.429  1.00 20.00     0.007 C 
HETATM    7  C1  UNL     1     -32.347   7.209   1.581  1.00 20.00     0.029 C 
HETATM    8 BR8  UNL     1     -32.840   4.528   2.274  1.00 20.00    -0.055 Br
ENDBRANCH   5   6
ENDBRANCH   4   5
TORSDOF 2
