REMARK  0 active torsions:
REMARK  status: ('A' for Active; 'I' for Inactive)
ROOT
HETATM    1  C1  UNL     1     -33.046   8.394   1.766  1.00 20.00     0.069 C 
HETATM    2  C2  UNL     1     -35.026   5.688   5.153  1.00 20.00     0.000 C 
HETATM    3  C3  UNL     1     -35.241   4.999   3.811  1.00 20.00     0.000 C 
HETATM    4  C4  UNL     1     -33.950   6.766   5.212  1.00 20.00     0.002 C 
HETATM    5  C5  UNL     1     -33.979   4.790   2.981  1.00 20.00     0.002 C 
HETATM    6  C6  UNL     1     -33.912   7.720   4.015  1.00 20.00     0.024 C 
HETATM    7  C7  UNL     1     -33.652   5.996   2.095  1.00 20.00     0.024 C 
HETATM    8  C8  UNL     1     -33.078   7.245   2.799  1.00 20.00     0.045 C 
HETATM    9  C9  UNL     1     -31.676   6.985   3.208  1.00 20.00     0.031 C 
HETATM   10  N10 UNL     1     -33.022   9.256   0.990  1.00 20.00    -0.196 NA
ENDROOT
TORSDOF 0
