REMARK  2 active torsions:
REMARK  status: ('A' for Active; 'I' for Inactive)
REMARK    1  A    between atoms: C1_1  and  C6_6 
REMARK    2  A    between atoms: C6_6  and  N7_7 
ROOT
HETATM    1  C3  UNL     1     -34.420   5.436   5.636  1.00 20.00     0.060 C 
HETATM    2  C4  UNL     1     -33.811   4.764   4.391  1.00 20.00     0.274 C 
HETATM    3  C5  UNL     1     -33.883   6.742   5.019  1.00 20.00     0.274 C 
HETATM    4  N7  UNL     1     -33.960   6.069   3.696  1.00 20.00     0.091 N 
ENDROOT
BRANCH   4   5
HETATM    5  C6  UNL     1     -32.776   6.366   2.899  1.00 20.00     0.300 C 
BRANCH   5   6
HETATM    6  C1  UNL     1     -32.904   7.679   2.189  1.00 20.00     0.010 C 
HETATM    7  C2  UNL     1     -32.908   7.799   0.856  1.00 20.00     0.053 C 
HETATM    8 BR8  UNL     1     -33.077   9.408  -0.049  1.00 20.00    -0.064 Br
ENDBRANCH   5   6
ENDBRANCH   4   5
TORSDOF 2
