REMARK  0 active torsions:
REMARK  status: ('A' for Active; 'I' for Inactive)
ROOT
HETATM    1  C1  UNL     1     -33.575   4.690   2.479  1.00 20.00    -0.023 C 
HETATM    2  C2  UNL     1     -34.328   4.650   3.588  1.00 20.00    -0.014 C 
HETATM    3  C3  UNL     1     -33.466   6.927   4.296  1.00 20.00     0.144 C 
HETATM    4  C4  UNL     1     -32.507   5.661   2.249  1.00 20.00     0.028 A 
HETATM    5  C5  UNL     1     -32.431   6.803   3.233  1.00 20.00     0.073 A 
HETATM    6  C6  UNL     1     -34.208   5.646   4.723  1.00 20.00     0.031 C 
HETATM    7  C7  UNL     1     -32.771   7.079   1.778  1.00 20.00    -0.029 A 
HETATM    8  C8  UNL     1     -35.623   6.034   5.185  1.00 20.00     0.027 C 
HETATM    9  C9  UNL     1     -33.438   5.012   5.887  1.00 20.00     0.027 C 
HETATM   10  C10 UNL     1     -31.701   7.730   0.935  1.00 20.00     0.016 C 
HETATM   11  C11 UNL     1     -34.166   7.509   1.392  1.00 20.00     0.016 C 
HETATM   12  O12 UNL     1     -33.642   8.017   4.830  1.00 20.00    -0.296 OA
ENDROOT
TORSDOF 0
