REMARK  2 active torsions:
REMARK  status: ('A' for Active; 'I' for Inactive)
REMARK    1  A    between atoms: C3_3  and  C5_5 
REMARK    2  A    between atoms: C4_4  and  C5_5 
ROOT
HETATM    1  C1  UNL     1     -33.939   6.652   6.382  1.00 20.00     0.012 C 
HETATM    2  C2  UNL     1     -34.230   5.658   5.774  1.00 20.00    -0.117 C 
HETATM    3  C4  UNL     1     -34.587   4.438   5.033  1.00 20.00     0.101 C 
ENDROOT
BRANCH   3   4
HETATM    4  C5  UNL     1     -34.692   4.696   3.530  1.00 20.00     0.108 C 
BRANCH   4   5
HETATM    5  C3  UNL     1     -33.405   5.221   2.912  1.00 20.00     0.219 C 
HETATM    6  O6  UNL     1     -32.533   4.489   2.456  1.00 20.00    -0.280 OA
HETATM    7 CL7  UNL     1     -33.332   6.961   2.971  1.00 20.00    -0.044 Cl
ENDBRANCH   4   5
ENDBRANCH   3   4
TORSDOF 2
