REMARK  0 active torsions:
REMARK  status: ('A' for Active; 'I' for Inactive)
ROOT
HETATM    1  C1  UNL     1     -33.244   6.560   3.416  1.00 20.00    -0.032 A 
HETATM    2  C2  UNL     1     -33.955   6.490   4.545  1.00 20.00     0.056 A 
HETATM    3  C3  UNL     1     -33.757   5.450   2.562  1.00 20.00     0.157 A 
HETATM    4  C4  UNL     1     -32.183   7.498   2.978  1.00 20.00     0.048 C 
HETATM    5  C5  UNL     1     -33.876   7.355   5.752  1.00 20.00     0.072 C 
HETATM    6  C6  UNL     1     -32.718   4.395   2.218  1.00 20.00     0.041 C 
HETATM    7  N7  UNL     1     -34.866   5.461   4.525  1.00 20.00    -0.160 NA
HETATM    8  N8  UNL     1     -34.800   4.837   3.429  1.00 20.00    -0.183 NA
ENDROOT
TORSDOF 0
