REMARK  1 active torsions:
REMARK  status: ('A' for Active; 'I' for Inactive)
REMARK    1  A    between atoms: C3_3  and  C7_7 
ROOT
HETATM    1  C1  UNL     1     -34.188   6.345   5.912  1.00 20.00     0.220 A 
HETATM    2  C2  UNL     1     -34.734   4.945   6.246  1.00 20.00     0.128 A 
HETATM    3  C3  UNL     1     -34.951   4.798   4.720  1.00 20.00     0.100 A 
HETATM    4  N8  UNL     1     -34.389   6.137   4.584  1.00 20.00    -0.355 N 
HETATM    5  O9  UNL     1     -33.746   7.284   6.534  1.00 20.00    -0.274 OA
HETATM    6  H22 UNL     1     -34.215   6.743   3.794  1.00 20.00     0.162 HD
ENDROOT
BRANCH   3   7
HETATM    7  C7  UNL     1     -34.098   3.753   3.987  1.00 20.00    -0.030 C 
HETATM    8  C4  UNL     1     -34.167   4.005   2.474  1.00 20.00     0.016 C 
HETATM    9  C5  UNL     1     -34.633   2.347   4.297  1.00 20.00     0.016 C 
HETATM   10  C6  UNL     1     -32.641   3.860   4.458  1.00 20.00     0.016 C 
ENDBRANCH   3   7
TORSDOF 1
