REMARK  3 active torsions:
REMARK  status: ('A' for Active; 'I' for Inactive)
REMARK    1  A    between atoms: C2_2  and  C3_3 
REMARK    2  A    between atoms: C3_3  and  C4_4 
REMARK    3  A    between atoms: C3_3  and  O5_5 
ROOT
HETATM    1  C3  UNL     1     -34.002   6.202   4.008  1.00 20.00     0.362 C 
HETATM    2  F8  UNL     1     -35.300   6.187   3.598  1.00 20.00    -0.195 F 
ENDROOT
BRANCH   1   3
HETATM    3  C2  UNL     1     -33.389   4.828   3.782  1.00 20.00     0.429 C 
HETATM    4  F6  UNL     1     -33.483   4.484   2.473  1.00 20.00    -0.208 F 
HETATM    5  F7  UNL     1     -34.083   3.887   4.468  1.00 20.00    -0.208 F 
ENDBRANCH   1   3
BRANCH   1   6
HETATM    6  C4  UNL     1     -33.280   7.271   3.209  1.00 20.00     0.455 C 
HETATM    7  F9  UNL     1     -33.334   7.017   1.884  1.00 20.00    -0.165 F 
HETATM    8  F10 UNL     1     -31.975   7.334   3.557  1.00 20.00    -0.165 F 
HETATM    9  F11 UNL     1     -33.820   8.491   3.418  1.00 20.00    -0.165 F 
ENDBRANCH   1   6
BRANCH   1  10
HETATM   10  O5  UNL     1     -33.964   6.613   5.376  1.00 20.00    -0.345 OA
HETATM   11  C1  UNL     1     -34.979   6.058   6.199  1.00 20.00     0.206 C 
ENDBRANCH   1  10
TORSDOF 3
