REMARK  2 active torsions:
REMARK  status: ('A' for Active; 'I' for Inactive)
REMARK    1  A    between atoms: C5_5  and  C6_6 
REMARK    2  A    between atoms: C6_6  and  N7_7 
ROOT
HETATM    1  C1  UNL     1     -32.875   7.374   1.633  1.00 20.00     0.012 C 
HETATM    2  C2  UNL     1     -33.142   6.634   2.540  1.00 20.00    -0.115 C 
HETATM    3  C5  UNL     1     -33.463   5.723   3.651  1.00 20.00     0.128 C 
ENDROOT
BRANCH   3   4
HETATM    4  C6  UNL     1     -34.916   5.876   4.123  1.00 20.00     0.227 C 
HETATM    5  C3  UNL     1     -35.099   7.065   5.067  1.00 20.00     0.043 C 
BRANCH   4   6
HETATM    6  N7  UNL     1     -35.319   4.656   4.827  1.00 20.00     0.084 N 
HETATM    7  C4  UNL     1     -34.500   4.452   6.011  1.00 20.00     0.307 C 
HETATM    8  H18 UNL     1     -36.295   4.743   5.100  1.00 20.00     0.315 HD
ENDBRANCH   4   6
ENDBRANCH   3   4
TORSDOF 2
