REMARK  0 active torsions:
REMARK  status: ('A' for Active; 'I' for Inactive)
ROOT
HETATM    1  C1  UNL     1     -33.524   4.369   2.971  1.00 20.00    -0.008 C 
HETATM    2  C2  UNL     1     -33.981   4.919   4.090  1.00 20.00    -0.037 C 
HETATM    3  C3  UNL     1     -33.799   6.370   4.245  1.00 20.00     0.044 C 
HETATM    4  C4  UNL     1     -33.010   6.713   2.115  1.00 20.00     0.246 C 
HETATM    5  C5  UNL     1     -32.913   5.202   1.894  1.00 20.00     0.133 C 
HETATM    6  C6  UNL     1     -34.580   4.373   5.335  1.00 20.00     0.040 C 
HETATM    7  C7  UNL     1     -34.220   6.790   5.621  1.00 20.00     0.060 C 
HETATM    8  C8  UNL     1     -34.225   5.450   6.366  1.00 20.00     0.011 C 
HETATM    9  N9  UNL     1     -33.360   7.196   3.361  1.00 20.00    -0.218 NA
HETATM   10  O10 UNL     1     -32.731   7.465   1.179  1.00 20.00    -0.271 OA
ENDROOT
TORSDOF 0
