REMARK  2 active torsions:
REMARK  status: ('A' for Active; 'I' for Inactive)
REMARK    1  A    between atoms: C1_1  and  C7_7 
REMARK    2  A    between atoms: C7_7  and  C10_10 
ROOT
HETATM    1  C2  UNL     1     -34.245   7.112   5.789  1.00 20.00     0.000 C 
HETATM    2  C3  UNL     1     -32.881   6.498   5.494  1.00 20.00     0.001 C 
HETATM    3  C4  UNL     1     -35.277   6.709   4.742  1.00 20.00     0.001 C 
HETATM    4  C5  UNL     1     -32.395   6.847   4.087  1.00 20.00     0.021 C 
HETATM    5  C6  UNL     1     -34.815   7.060   3.327  1.00 20.00     0.021 C 
HETATM    6  C7  UNL     1     -33.423   6.511   3.003  1.00 20.00     0.051 C 
ENDROOT
BRANCH   6   7
HETATM    7  C1  UNL     1     -33.499   4.996   2.822  1.00 20.00     0.182 C 
HETATM    8  O11 UNL     1     -32.707   4.515   1.966  1.00 20.00    -0.647 OA
HETATM    9  O12 UNL     1     -34.348   4.417   3.557  1.00 20.00    -0.647 OA
ENDBRANCH   6   7
BRANCH   6  10
HETATM   10  C10 UNL     1     -32.950   6.988   1.630  1.00 20.00    -0.004 C 
HETATM   11  C8  UNL     1     -33.931   6.551   0.547  1.00 20.00     0.011 C 
HETATM   12  C9  UNL     1     -32.777   8.503   1.623  1.00 20.00     0.011 C 
ENDBRANCH   6  10
TORSDOF 2
