REMARK  0 active torsions:
REMARK  status: ('A' for Active; 'I' for Inactive)
ROOT
HETATM    1  C1  UNL     1     -34.490   4.600   4.519  1.00 20.00     0.158 C 
HETATM    2  C2  UNL     1     -33.745   5.284   3.654  1.00 20.00     0.277 C 
HETATM    3  F3  UNL     1     -33.395   4.714   2.481  1.00 20.00    -0.172 F 
HETATM    4  F4  UNL     1     -33.336   6.539   3.934  1.00 20.00    -0.172 F 
HETATM    5 CL5  UNL     1     -34.993   5.220   6.033  1.00 20.00    -0.091 Cl
ENDROOT
TORSDOF 0
