REMARK  2 active torsions:
REMARK  status: ('A' for Active; 'I' for Inactive)
REMARK    1  A    between atoms: C4_4  and  C10_10 
REMARK    2  A    between atoms: C7_7  and  C10_10 
ROOT
HETATM    1  C1  UNL     1     -32.997   9.921   0.810  1.00 20.00     0.015 A 
HETATM    2  C2  UNL     1     -32.822   9.268   2.064  1.00 20.00     0.017 A 
HETATM    3  C3  UNL     1     -33.152   9.024  -0.224  1.00 20.00    -0.021 A 
HETATM    4  C4  UNL     1     -32.850   7.896   1.941  1.00 20.00     0.002 A 
HETATM    5  C8  UNL     1     -33.357   9.302  -1.662  1.00 20.00     0.056 C 
HETATM    6  S11 UNL     1     -33.087   7.401   0.319  1.00 20.00    -0.098 SA
ENDROOT
BRANCH   4   7
HETATM    7  C10 UNL     1     -32.702   6.841   3.034  1.00 20.00     0.126 C 
HETATM    8 CL12 UNL     1     -32.251   7.675   4.566  1.00 20.00    -0.119 Cl
BRANCH   7   9
HETATM    9  C7  UNL     1     -33.893   5.969   3.232  1.00 20.00     0.013 A 
HETATM   10  C5  UNL     1     -34.097   4.757   2.361  1.00 20.00     0.011 A 
HETATM   11  C6  UNL     1     -33.730   4.587   3.812  1.00 20.00    -0.012 A 
HETATM   12  C9  UNL     1     -34.731   4.061   4.781  1.00 20.00     0.010 C 
ENDBRANCH   7   9
ENDBRANCH   4   7
TORSDOF 2
