REMARK  2 active torsions:
REMARK  status: ('A' for Active; 'I' for Inactive)
REMARK    1  A    between atoms: C3_3  and  C8_8 
REMARK    2  A    between atoms: C7_7  and  C8_8 
ROOT
HETATM    1  C1  UNL     1     -31.933   6.488   1.954  1.00 20.00     0.018 A 
HETATM    2  C2  UNL     1     -31.903   7.163   0.700  1.00 20.00     0.032 A 
HETATM    3  C3  UNL     1     -32.976   6.913   2.747  1.00 20.00    -0.001 A 
HETATM    4  C4  UNL     1     -32.924   8.080   0.582  1.00 20.00     0.075 A 
HETATM    5  S9  UNL     1     -33.914   8.123   1.979  1.00 20.00    -0.081 SA
HETATM    6 CL10 UNL     1     -33.266   9.106  -0.747  1.00 20.00    -0.076 Cl
ENDROOT
BRANCH   3   7
HETATM    7  C8  UNL     1     -33.352   6.451   4.137  1.00 20.00     0.102 C 
HETATM    8 BR11 UNL     1     -33.091   7.927   5.399  1.00 20.00    -0.085 Br
BRANCH   7   9
HETATM    9  C7  UNL     1     -34.745   5.932   4.235  1.00 20.00     0.005 A 
HETATM   10  C5  UNL     1     -35.048   4.502   3.885  1.00 20.00     0.006 A 
HETATM   11  C6  UNL     1     -35.114   4.956   5.317  1.00 20.00     0.006 A 
ENDBRANCH   7   9
ENDBRANCH   3   7
TORSDOF 2
