REMARK  2 active torsions:
REMARK  status: ('A' for Active; 'I' for Inactive)
REMARK    1  A    between atoms: C3_3  and  C8_8 
REMARK    2  A    between atoms: C7_7  and  C8_8 
ROOT
HETATM    1  C1  UNL     1     -32.127   6.232   2.553  1.00 20.00     0.018 A 
HETATM    2  C2  UNL     1     -31.814   7.304   1.668  1.00 20.00     0.032 A 
HETATM    3  C3  UNL     1     -33.447   6.256   2.947  1.00 20.00     0.003 A 
HETATM    4  C4  UNL     1     -32.906   8.106   1.420  1.00 20.00     0.075 A 
HETATM    5  S9  UNL     1     -34.302   7.567   2.252  1.00 20.00    -0.081 SA
HETATM    6 CL10 UNL     1     -32.983   9.498   0.422  1.00 20.00    -0.076 Cl
ENDROOT
BRANCH   3   7
HETATM    7  C8  UNL     1     -34.177   5.295   3.881  1.00 20.00     0.126 C 
HETATM    8 CL11 UNL     1     -33.070   3.923   4.257  1.00 20.00    -0.119 Cl
BRANCH   7   9
HETATM    9  C7  UNL     1     -34.706   5.910   5.130  1.00 20.00     0.009 A 
HETATM   10  C5  UNL     1     -34.936   5.065   6.352  1.00 20.00     0.007 A 
HETATM   11  C6  UNL     1     -33.816   6.068   6.332  1.00 20.00     0.007 A 
ENDBRANCH   7   9
ENDBRANCH   3   7
TORSDOF 2
