REMARK  2 active torsions:
REMARK  status: ('A' for Active; 'I' for Inactive)
REMARK    1  A    between atoms: C4_4  and  C9_9 
REMARK    2  A    between atoms: C7_7  and  C9_9 
ROOT
HETATM    1  C1  UNL     1     -31.808   6.731   1.743  1.00 20.00     0.015 A 
HETATM    2  C2  UNL     1     -32.339   6.093   2.901  1.00 20.00     0.017 A 
HETATM    3  C3  UNL     1     -32.630   7.735   1.282  1.00 20.00    -0.021 A 
HETATM    4  C4  UNL     1     -33.548   6.634   3.281  1.00 20.00    -0.002 A 
HETATM    5  C8  UNL     1     -32.434   8.624   0.116  1.00 20.00     0.056 C 
HETATM    6  S10 UNL     1     -34.037   7.906   2.244  1.00 20.00    -0.099 SA
ENDROOT
BRANCH   4   7
HETATM    7  C9  UNL     1     -34.428   6.244   4.447  1.00 20.00     0.102 C 
HETATM    8 BR11 UNL     1     -35.121   4.435   4.153  1.00 20.00    -0.085 Br
BRANCH   7   9
HETATM    9  C7  UNL     1     -33.739   6.321   5.766  1.00 20.00     0.005 A 
HETATM   10  C5  UNL     1     -33.666   7.628   6.507  1.00 20.00     0.006 A 
HETATM   11  C6  UNL     1     -34.536   6.517   7.026  1.00 20.00     0.006 A 
ENDBRANCH   7   9
ENDBRANCH   4   7
TORSDOF 2
