REMARK  2 active torsions:
REMARK  status: ('A' for Active; 'I' for Inactive)
REMARK    1  A    between atoms: C4_4  and  C10_10 
REMARK    2  A    between atoms: C7_7  and  C10_10 
ROOT
HETATM    1  C1  UNL     1     -32.114   7.836   0.111  1.00 20.00     0.015 A 
HETATM    2  C2  UNL     1     -32.041   7.416   1.471  1.00 20.00     0.017 A 
HETATM    3  C3  UNL     1     -33.198   8.653  -0.120  1.00 20.00    -0.021 A 
HETATM    4  C4  UNL     1     -33.072   7.928   2.227  1.00 20.00    -0.002 A 
HETATM    5  C8  UNL     1     -33.618   9.289  -1.388  1.00 20.00     0.056 C 
HETATM    6  S11 UNL     1     -34.122   8.911   1.298  1.00 20.00    -0.099 SA
ENDROOT
BRANCH   4   7
HETATM    7  C10 UNL     1     -33.351   7.724   3.699  1.00 20.00     0.102 C 
HETATM    8 BR12 UNL     1     -31.923   8.567   4.743  1.00 20.00    -0.085 Br
BRANCH   7   9
HETATM    9  C7  UNL     1     -33.502   6.293   4.082  1.00 20.00     0.009 A 
HETATM   10  C5  UNL     1     -34.284   5.917   5.314  1.00 20.00     0.011 A 
HETATM   11  C6  UNL     1     -34.839   5.611   3.948  1.00 20.00    -0.013 A 
HETATM   12  C9  UNL     1     -34.915   4.203   3.469  1.00 20.00     0.010 C 
ENDBRANCH   7   9
ENDBRANCH   4   7
TORSDOF 2
