REMARK  2 active torsions:
REMARK  status: ('A' for Active; 'I' for Inactive)
REMARK    1  A    between atoms: C3_3  and  C5_5 
REMARK    2  A    between atoms: C5_5  and  S6_6 
ROOT
HETATM    1  C1  UNL     1     -35.533   5.224   4.270  1.00 20.00     0.010 A 
HETATM    2  C2  UNL     1     -34.507   4.413   5.010  1.00 20.00     0.010 A 
HETATM    3  C3  UNL     1     -34.063   5.444   3.999  1.00 20.00    -0.036 A 
HETATM    4  C4  UNL     1     -33.506   4.954   2.690  1.00 20.00     0.016 C 
ENDROOT
BRANCH   3   5
HETATM    5  C5  UNL     1     -33.433   6.709   4.512  1.00 20.00     0.079 C 
BRANCH   5   6
HETATM    6  S6  UNL     1     -34.048   7.114   6.174  1.00 20.00    -0.181 SA
HETATM    7  H16 UNL     1     -33.324   8.232   6.322  1.00 20.00     0.101 HD
ENDBRANCH   5   6
ENDBRANCH   3   5
TORSDOF 2
