REMARK  0 active torsions:
REMARK  status: ('A' for Active; 'I' for Inactive)
ROOT
HETATM    1  C1  UNL     1     -33.439   5.124   2.220  1.00 20.00     0.149 A 
HETATM    2  C2  UNL     1     -33.234   6.477   2.389  1.00 20.00     0.094 A 
HETATM    3  C3  UNL     1     -34.190   5.317   4.272  1.00 20.00     0.145 A 
HETATM    4  N4  UNL     1     -33.987   4.457   3.299  1.00 20.00    -0.244 NA
HETATM    5  S5  UNL     1     -33.746   6.945   3.958  1.00 20.00    -0.049 SA
HETATM    6 CL6  UNL     1     -32.587   7.615   1.294  1.00 20.00    -0.075 Cl
HETATM    7 BR7  UNL     1     -34.939   4.785   5.946  1.00 20.00    -0.021 Br
ENDROOT
TORSDOF 0
