REMARK  1 active torsions:
REMARK  status: ('A' for Active; 'I' for Inactive)
REMARK    1  A    between atoms: C2_2  and  C6_6 
ROOT
HETATM    1  C1  UNL     1     -32.858   5.744   1.355  1.00 20.00     0.080 A 
HETATM    2  C2  UNL     1     -32.818   7.082   1.685  1.00 20.00     0.047 A 
HETATM    3  C3  UNL     1     -33.473   6.285   3.621  1.00 20.00     0.144 A 
HETATM    4  N7  UNL     1     -33.171   7.394   2.984  1.00 20.00    -0.238 NA
HETATM    5  S8  UNL     1     -33.354   4.830   2.719  1.00 20.00    -0.073 SA
HETATM    6 BR9  UNL     1     -34.015   6.293   5.452  1.00 20.00    -0.021 Br
ENDROOT
BRANCH   2   7
HETATM    7  C6  UNL     1     -32.408   8.168   0.676  1.00 20.00     0.038 A 
HETATM    8  C4  UNL     1     -33.361   9.311   0.417  1.00 20.00     0.011 A 
HETATM    9  C5  UNL     1     -33.160   8.262  -0.631  1.00 20.00     0.011 A 
ENDBRANCH   2   7
TORSDOF 1
