REMARK  3 active torsions:
REMARK  status: ('A' for Active; 'I' for Inactive)
REMARK    1  A    between atoms: C6_6  and  C8_8 
REMARK    2  A    between atoms: C7_7  and  N10_10 
REMARK    3  A    between atoms: C8_8  and  N10_10 
ROOT
HETATM    1  C1  UNL     1     -33.852   5.406   3.346  1.00 20.00     0.095 C 
HETATM    2  C8  UNL     1     -33.705   6.850   3.642  1.00 20.00     0.330 C 
HETATM    3  N9  UNL     1     -33.945   4.275   3.103  1.00 20.00    -0.195 NA
ENDROOT
BRANCH   2   4
HETATM    4  C6  UNL     1     -33.821   7.142   5.098  1.00 20.00     0.033 A 
HETATM    5  C2  UNL     1     -34.770   6.351   5.956  1.00 20.00     0.008 A 
HETATM    6  C3  UNL     1     -33.286   6.168   6.110  1.00 20.00     0.008 A 
ENDBRANCH   2   4
BRANCH   2   7
HETATM    7  N10 UNL     1     -32.437   7.308   3.099  1.00 20.00     0.106 N 
HETATM    8  H22 UNL     1     -31.675   6.785   3.532  1.00 20.00     0.318 HD
BRANCH   7   9
HETATM    9  C7  UNL     1     -32.386   7.118   1.655  1.00 20.00     0.222 A 
HETATM   10  C4  UNL     1     -33.073   8.089   0.735  1.00 20.00     0.038 A 
HETATM   11  C5  UNL     1     -31.574   8.043   0.791  1.00 20.00     0.038 A 
ENDBRANCH   7   9
ENDBRANCH   2   7
TORSDOF 3
