REMARK  1 active torsions:
REMARK  status: ('A' for Active; 'I' for Inactive)
REMARK    1  A    between atoms: C4_4  and  C7_7 
ROOT
HETATM    1  C1  UNL     1     -33.846   6.629   4.680  1.00 20.00     0.069 C 
HETATM    2  C6  UNL     1     -33.932   5.028   2.799  1.00 20.00     0.031 C 
HETATM    3  C7  UNL     1     -33.215   6.269   3.379  1.00 20.00     0.128 C 
HETATM    4  N8  UNL     1     -34.339   6.934   5.686  1.00 20.00    -0.197 NA
ENDROOT
BRANCH   3   5
HETATM    5  C4  UNL     1     -33.159   7.405   2.435  1.00 20.00     0.001 A 
HETATM    6  C2  UNL     1     -32.616   7.442   1.169  1.00 20.00     0.018 A 
HETATM    7  C3  UNL     1     -32.755   8.725   0.565  1.00 20.00     0.032 A 
HETATM    8  C5  UNL     1     -33.399   9.620   1.391  1.00 20.00     0.075 A 
HETATM    9  S9  UNL     1     -33.833   8.913   2.889  1.00 20.00    -0.081 SA
HETATM   10 CL10 UNL     1     -33.776  11.261   1.072  1.00 20.00    -0.076 Cl
ENDBRANCH   3   5
TORSDOF 1
