REMARK  3 active torsions:
REMARK  status: ('A' for Active; 'I' for Inactive)
REMARK    1  A    between atoms: C4_4  and  C7_7 
REMARK    2  A    between atoms: C6_6  and  N9_9 
REMARK    3  A    between atoms: C7_7  and  N9_9 
ROOT
HETATM    1  C1  UNL     1     -32.833   7.035   4.188  1.00 20.00     0.095 C 
HETATM    2  C7  UNL     1     -32.544   6.776   2.758  1.00 20.00     0.330 C 
HETATM    3  N8  UNL     1     -33.070   7.259   5.301  1.00 20.00    -0.195 NA
ENDROOT
BRANCH   2   4
HETATM    4  C4  UNL     1     -33.140   5.496   2.285  1.00 20.00     0.033 A 
HETATM    5  C2  UNL     1     -33.211   4.308   3.204  1.00 20.00     0.008 A 
HETATM    6  C3  UNL     1     -34.469   5.036   2.819  1.00 20.00     0.008 A 
ENDBRANCH   2   4
BRANCH   2   7
HETATM    7  N9  UNL     1     -33.012   7.910   1.978  1.00 20.00     0.101 N 
HETATM    8  H21 UNL     1     -34.020   7.833   1.840  1.00 20.00     0.317 HD
BRANCH   7   9
HETATM    9  C6  UNL     1     -32.355   7.957   0.677  1.00 20.00     0.267 C 
HETATM   10  C5  UNL     1     -32.822   9.128  -0.118  1.00 20.00     0.037 C 
ENDBRANCH   7   9
ENDBRANCH   2   7
TORSDOF 3
