REMARK  0 active torsions:
REMARK  status: ('A' for Active; 'I' for Inactive)
ROOT
HETATM    1  C1  UNL     1     -35.991   4.985   3.940  1.00 20.00     0.068 C 
HETATM    2  C2  UNL     1     -32.557   7.849   4.590  1.00 20.00     0.009 A 
HETATM    3  C3  UNL     1     -32.134   8.120   3.287  1.00 20.00     0.024 A 
HETATM    4  C4  UNL     1     -33.291   6.148   2.454  1.00 20.00     0.033 A 
HETATM    5  C5  UNL     1     -33.333   6.723   4.809  1.00 20.00    -0.050 A 
HETATM    6  C6  UNL     1     -33.703   5.883   3.750  1.00 20.00    -0.033 A 
HETATM    7  C7  UNL     1     -32.498   7.275   2.227  1.00 20.00     0.034 A 
HETATM    8  C8  UNL     1     -33.925   6.252   6.099  1.00 20.00     0.041 C 
HETATM    9  C9  UNL     1     -34.284   4.798   5.748  1.00 20.00     0.028 C 
HETATM   10  C10 UNL     1     -34.570   4.754   4.231  1.00 20.00     0.126 C 
HETATM   11  N11 UNL     1     -37.113   5.167   3.710  1.00 20.00    -0.197 NA
HETATM   12 CL12 UNL     1     -31.966   7.637   0.629  1.00 20.00    -0.084 Cl
ENDROOT
TORSDOF 0
