REMARK  2 active torsions:
REMARK  status: ('A' for Active; 'I' for Inactive)
REMARK    1  A    between atoms: C5_5  and  N8_8 
REMARK    2  A    between atoms: C7_7  and  N8_8 
ROOT
HETATM    1  C1  UNL     1     -32.203   7.449   1.304  1.00 20.00     0.013 C 
HETATM    2  C2  UNL     1     -32.649   6.708   2.136  1.00 20.00    -0.087 C 
HETATM    3  C7  UNL     1     -33.191   5.799   3.150  1.00 20.00     0.364 C 
ENDROOT
BRANCH   3   4
HETATM    4  N8  UNL     1     -33.946   6.542   4.158  1.00 20.00     0.099 N 
HETATM    5  C6  UNL     1     -33.038   7.201   5.095  1.00 20.00     0.311 C 
BRANCH   4   6
HETATM    6  C5  UNL     1     -34.859   5.650   4.873  1.00 20.00     0.223 A 
HETATM    7  C3  UNL     1     -34.321   4.507   5.689  1.00 20.00     0.038 A 
HETATM    8  C4  UNL     1     -34.945   5.688   6.374  1.00 20.00     0.038 A 
ENDBRANCH   4   6
ENDBRANCH   3   4
TORSDOF 2
