REMARK  1 active torsions:
REMARK  status: ('A' for Active; 'I' for Inactive)
REMARK    1  A    between atoms: C6_6  and  N8_8 
ROOT
HETATM    1  C1  UNL     1     -33.373   9.153   1.047  1.00 20.00     0.014 C 
HETATM    2  C2  UNL     1     -32.969   8.105   1.471  1.00 20.00    -0.096 C 
HETATM    3  C6  UNL     1     -32.473   6.826   1.986  1.00 20.00     0.243 C 
ENDROOT
BRANCH   3   4
HETATM    4  N8  UNL     1     -33.329   6.290   3.016  1.00 20.00    -0.269 N 
HETATM    5  C4  UNL     1     -33.386   6.698   4.317  1.00 20.00     0.138 A 
HETATM    6  C5  UNL     1     -34.335   5.907   4.917  1.00 20.00     0.070 A 
HETATM    7  C3  UNL     1     -34.787   5.058   3.890  1.00 20.00     0.164 A 
HETATM    8 CL9  UNL     1     -34.864   5.925   6.522  1.00 20.00    -0.081 Cl
HETATM    9  N7  UNL     1     -34.175   5.287   2.725  1.00 20.00    -0.183 NA
ENDBRANCH   3   4
TORSDOF 1
