REMARK  3 active torsions:
REMARK  status: ('A' for Active; 'I' for Inactive)
REMARK    1  A    between atoms: C6_6  and  N11_11 
REMARK    2  A    between atoms: C8_8  and  C9_9 
REMARK    3  A    between atoms: C9_9  and  N11_11 
ROOT
HETATM    1  C1  UNL     1     -33.011   8.461   1.003  1.00 20.00     0.060 C 
HETATM    2  C8  UNL     1     -32.086   7.511   1.638  1.00 20.00     0.153 C 
HETATM    3  N10 UNL     1     -33.740   9.210   0.500  1.00 20.00    -0.197 NA
ENDROOT
BRANCH   2   4
HETATM    4  C9  UNL     1     -32.362   7.357   3.130  1.00 20.00     0.284 C 
BRANCH   4   5
HETATM    5  N11 UNL     1     -33.709   6.864   3.360  1.00 20.00     0.093 N 
HETATM    6  H27 UNL     1     -34.372   7.630   3.280  1.00 20.00     0.316 HD
BRANCH   5   7
HETATM    7  C6  UNL     1     -33.821   6.289   4.688  1.00 20.00     0.154 C 
HETATM    8  C4  UNL     1     -33.241   4.871   4.712  1.00 20.00     0.041 C 
HETATM    9  C2  UNL     1     -34.328   3.996   4.091  1.00 20.00     0.003 C 
HETATM   10  C3  UNL     1     -35.645   4.742   4.300  1.00 20.00     0.003 C 
HETATM   11  C5  UNL     1     -35.290   6.031   5.040  1.00 20.00     0.041 C 
HETATM   12  C7  UNL     1     -33.139   7.210   5.694  1.00 20.00     0.049 C 
ENDBRANCH   5   7
ENDBRANCH   4   5
ENDBRANCH   2   4
TORSDOF 3
