REMARK  1 active torsions:
REMARK  status: ('A' for Active; 'I' for Inactive)
REMARK    1  A    between atoms: C7_7  and  C8_8 
ROOT
HETATM    1  C1  UNL     1     -32.304   7.723   0.802  1.00 20.00     0.012 C 
HETATM    2  C2  UNL     1     -32.452   7.538   1.979  1.00 20.00    -0.117 C 
HETATM    3  C8  UNL     1     -32.633   7.312   3.420  1.00 20.00     0.105 C 
ENDROOT
BRANCH   3   4
HETATM    4  C7  UNL     1     -33.823   6.415   3.695  1.00 20.00     0.066 C 
HETATM    5  C3  UNL     1     -34.022   6.131   5.169  1.00 20.00     0.132 C 
HETATM    6  C4  UNL     1     -34.313   4.674   5.430  1.00 20.00     0.079 C 
HETATM    7  O9  UNL     1     -33.956   6.977   6.052  1.00 20.00    -0.298 OA
HETATM    8  C5  UNL     1     -34.542   4.140   4.022  1.00 20.00     0.008 C 
HETATM    9  C6  UNL     1     -33.646   5.000   3.139  1.00 20.00     0.013 C 
ENDBRANCH   3   4
TORSDOF 1
