REMARK  3 active torsions:
REMARK  status: ('A' for Active; 'I' for Inactive)
REMARK    1  A    between atoms: C5_5  and  C8_8 
REMARK    2  A    between atoms: C8_8  and  C9_9 
REMARK    3  A    between atoms: C9_9  and  C10_10 
ROOT
HETATM    1  C1  UNL     1     -33.879   6.293   4.968  1.00 20.00     0.131 C 
HETATM    2  C2  UNL     1     -34.998   5.329   5.270  1.00 20.00     0.079 C 
HETATM    3  C3  UNL     1     -34.975   4.424   4.044  1.00 20.00     0.008 C 
HETATM    4  C4  UNL     1     -34.504   5.329   2.914  1.00 20.00     0.013 C 
HETATM    5  C5  UNL     1     -33.383   6.159   3.543  1.00 20.00     0.055 C 
HETATM    6  O11 UNL     1     -33.431   7.089   5.785  1.00 20.00    -0.298 OA
ENDROOT
BRANCH   5   7
HETATM    7  C8  UNL     1     -33.181   7.496   2.858  1.00 20.00     0.012 C 
BRANCH   7   8
HETATM    8  C9  UNL     1     -32.645   7.318   1.435  1.00 20.00     0.005 C 
BRANCH   8   9
HETATM    9  C10 UNL     1     -32.489   8.644   0.668  1.00 20.00    -0.023 C 
HETATM   10  C6  UNL     1     -33.846   9.343   0.558  1.00 20.00     0.009 C 
HETATM   11  C7  UNL     1     -31.897   8.445  -0.728  1.00 20.00     0.009 C 
ENDBRANCH   8   9
ENDBRANCH   7   8
ENDBRANCH   5   7
TORSDOF 3
