REMARK  0 active torsions:
REMARK  status: ('A' for Active; 'I' for Inactive)
ROOT
HETATM    1  C1  UNL     1     -33.370   6.585   3.938  1.00 20.00     0.225 C 
HETATM    2  C2  UNL     1     -34.814   5.061   5.989  1.00 20.00     0.021 C 
HETATM    3  C3  UNL     1     -34.340   4.356   4.726  1.00 20.00     0.020 C 
HETATM    4  C4  UNL     1     -33.809   6.127   6.372  1.00 20.00     0.122 C 
HETATM    5  C5  UNL     1     -34.178   5.337   3.549  1.00 20.00     0.034 C 
HETATM    6  C6  UNL     1     -35.551   5.823   3.050  1.00 20.00     0.025 C 
HETATM    7  C7  UNL     1     -33.466   4.609   2.396  1.00 20.00     0.025 C 
HETATM    8  N8  UNL     1     -33.413   6.971   5.261  1.00 20.00    -0.360 N 
HETATM    9  O9  UNL     1     -32.794   7.269   3.088  1.00 20.00    -0.273 OA
HETATM   10  H22 UNL     1     -33.145   7.926   5.476  1.00 20.00     0.162 HD
ENDROOT
TORSDOF 0
