REMARK  3 active torsions:
REMARK  status: ('A' for Active; 'I' for Inactive)
REMARK    1  A    between atoms: C5_5  and  C8_8 
REMARK    2  A    between atoms: C8_8  and  C9_9 
REMARK    3  A    between atoms: C9_9  and  C10_10 
ROOT
HETATM    1  C1  UNL     1     -33.249   5.107   3.078  1.00 20.00     0.131 C 
HETATM    2  C2  UNL     1     -34.429   4.547   3.831  1.00 20.00     0.079 C 
HETATM    3  C3  UNL     1     -34.569   5.535   4.982  1.00 20.00     0.008 C 
HETATM    4  C4  UNL     1     -34.091   6.861   4.404  1.00 20.00     0.013 C 
HETATM    5  C5  UNL     1     -32.861   6.485   3.575  1.00 20.00     0.055 C 
HETATM    6  O11 UNL     1     -32.680   4.512   2.171  1.00 20.00    -0.298 OA
ENDROOT
BRANCH   5   7
HETATM    7  C8  UNL     1     -32.583   7.463   2.452  1.00 20.00     0.012 C 
BRANCH   7   8
HETATM    8  C9  UNL     1     -33.557   7.269   1.288  1.00 20.00     0.005 C 
BRANCH   8   9
HETATM    9  C10 UNL     1     -33.363   8.286   0.149  1.00 20.00    -0.023 C 
HETATM   10  C6  UNL     1     -31.948   8.165  -0.420  1.00 20.00     0.009 C 
HETATM   11  C7  UNL     1     -33.615   9.725   0.601  1.00 20.00     0.009 C 
ENDBRANCH   8   9
ENDBRANCH   7   8
ENDBRANCH   5   7
TORSDOF 3
