REMARK  3 active torsions:
REMARK  status: ('A' for Active; 'I' for Inactive)
REMARK    1  A    between atoms: C3_3  and  C4_4 
REMARK    2  A    between atoms: C3_3  and  C5_5 
REMARK    3  A    between atoms: C4_4  and  N6_6 
ROOT
HETATM    1  C3  UNL     1     -34.432   6.886   2.909  1.00 20.00     0.152 C 
ENDROOT
BRANCH   1   2
HETATM    2  C4  UNL     1     -34.610   5.964   4.126  1.00 20.00     0.224 C 
HETATM    3  C1  UNL     1     -34.090   4.561   3.815  1.00 20.00     0.043 C 
BRANCH   2   4
HETATM    4  N6  UNL     1     -33.897   6.479   5.295  1.00 20.00     0.083 N 
HETATM    5  C2  UNL     1     -34.452   5.927   6.521  1.00 20.00     0.307 C 
HETATM    6  H19 UNL     1     -33.980   7.493   5.311  1.00 20.00     0.315 HD
ENDBRANCH   2   4
ENDBRANCH   1   2
BRANCH   1   7
HETATM    7  C5  UNL     1     -33.000   6.995   2.421  1.00 20.00     0.389 C 
HETATM    8  F7  UNL     1     -32.190   7.550   3.346  1.00 20.00    -0.171 F 
HETATM    9  F8  UNL     1     -32.940   7.768   1.313  1.00 20.00    -0.171 F 
HETATM   10  F9  UNL     1     -32.499   5.783   2.100  1.00 20.00    -0.171 F 
ENDBRANCH   1   7
TORSDOF 3
