REMARK  1 active torsions:
REMARK  status: ('A' for Active; 'I' for Inactive)
REMARK    1  A    between atoms: C7_7  and  N9_9 
ROOT
HETATM    1  C1  UNL     1     -32.879   8.320   1.332  1.00 20.00     0.089 C 
HETATM    2  C7  UNL     1     -32.250   7.056   1.709  1.00 20.00     0.395 C 
HETATM    3  N8  UNL     1     -33.376   9.325   1.031  1.00 20.00    -0.195 NA
ENDROOT
BRANCH   2   4
HETATM    4  N9  UNL     1     -32.949   6.442   2.840  1.00 20.00     0.102 N 
HETATM    5  C3  UNL     1     -32.658   5.008   2.931  1.00 20.00     0.274 C 
HETATM    6  C2  UNL     1     -33.925   4.205   3.255  1.00 20.00     0.040 C 
HETATM    7  C5  UNL     1     -34.430   4.266   4.694  1.00 20.00     0.075 C 
HETATM    8  S10 UNL     1     -34.844   5.931   5.294  1.00 20.00    -0.167 SA
HETATM    9  C6  UNL     1     -33.161   6.603   5.390  1.00 20.00     0.104 C 
HETATM   10  C4  UNL     1     -32.657   7.190   4.070  1.00 20.00     0.283 C 
ENDBRANCH   2   4
TORSDOF 1
