REMARK  3 active torsions:
REMARK  status: ('A' for Active; 'I' for Inactive)
REMARK    1  A    between atoms: C6_6  and  C9_9 
REMARK    2  A    between atoms: C7_7  and  C10_10 
REMARK    3  A    between atoms: C10_10  and  N11_11 
ROOT
HETATM    1  C1  UNL     1     -33.082   6.129   1.035  1.00 20.00     0.032 C 
HETATM    2  C2  UNL     1     -32.710   7.952   2.733  1.00 20.00     0.032 C 
HETATM    3  C3  UNL     1     -33.288   5.128   2.163  1.00 20.00     0.235 C 
HETATM    4  C4  UNL     1     -32.918   6.942   3.853  1.00 20.00     0.235 C 
HETATM    5  C6  UNL     1     -32.172   7.287   1.461  1.00 20.00    -0.012 C 
HETATM    6  N11 UNL     1     -33.836   5.843   3.375  1.00 20.00    -0.069 N 
HETATM    7  H32 UNL     1     -34.722   6.285   3.095  1.00 20.00     0.280 HD
ENDROOT
BRANCH   6   8
HETATM    8  C10 UNL     1     -34.173   4.881   4.481  1.00 20.00     0.268 C 
BRANCH   8   9
HETATM    9  C7  UNL     1     -35.120   5.551   5.452  1.00 20.00     0.171 A 
HETATM   10  C5  UNL     1     -34.612   6.476   6.522  1.00 20.00     0.201 A 
HETATM   11  O12 UNL     1     -34.984   5.119   6.810  1.00 20.00    -0.380 OA
ENDBRANCH   8   9
ENDBRANCH   6   8
BRANCH   5  12
HETATM   12  C9  UNL     1     -32.031   8.309   0.334  1.00 20.00     0.000 C 
HETATM   13  C8  UNL     1     -33.346   8.915  -0.029  1.00 20.00     0.005 C 
ENDBRANCH   5  12
TORSDOF 3
