REMARK  2 active torsions:
REMARK  status: ('A' for Active; 'I' for Inactive)
REMARK    1  A    between atoms: C6_6  and  C9_9 
REMARK    2  A    between atoms: C7_7  and  N10_10 
ROOT
HETATM    1  C1  UNL     1     -35.906   5.694   3.720  1.00 20.00     0.158 C 
HETATM    2  N10 UNL     1     -34.953   5.101   4.059  1.00 20.00    -0.270 NA
HETATM    3  S11 UNL     1     -37.220   6.478   3.280  1.00 20.00    -0.055 SA
ENDROOT
BRANCH   2   4
HETATM    4  C7  UNL     1     -33.698   5.560   3.453  1.00 20.00     0.109 C 
HETATM    5  C4  UNL     1     -33.451   7.015   3.850  1.00 20.00     0.028 C 
HETATM    6  C2  UNL     1     -32.216   7.583   3.153  1.00 20.00     0.007 C 
HETATM    7  C6  UNL     1     -32.257   7.418   1.626  1.00 20.00    -0.015 C 
HETATM    8  C3  UNL     1     -32.546   5.959   1.241  1.00 20.00     0.007 C 
HETATM    9  C5  UNL     1     -33.782   5.390   1.936  1.00 20.00     0.028 C 
BRANCH   7  10
HETATM   10  C9  UNL     1     -33.258   8.381   0.982  1.00 20.00     0.000 C 
HETATM   11  C8  UNL     1     -32.944   9.804   1.310  1.00 20.00     0.005 C 
ENDBRANCH   7  10
ENDBRANCH   2   4
TORSDOF 2
