REMARK  3 active torsions:
REMARK  status: ('A' for Active; 'I' for Inactive)
REMARK    1  A    between atoms: C4_4  and  N11_11 
REMARK    2  A    between atoms: C8_8  and  C9_9 
REMARK    3  A    between atoms: C8_8  and  N11_11 
ROOT
HETATM    1  C1  UNL     1     -33.558   4.840   2.871  1.00 20.00     0.067 C 
HETATM    2  C2  UNL     1     -33.842   4.137   4.192  1.00 20.00     0.274 C 
HETATM    3  C3  UNL     1     -33.970   6.402   4.675  1.00 20.00     0.307 C 
HETATM    4  C4  UNL     1     -33.696   6.333   3.176  1.00 20.00     0.250 C 
HETATM    5  C7  UNL     1     -34.706   4.814   6.355  1.00 20.00     0.310 C 
HETATM    6  N10 UNL     1     -34.630   5.122   4.934  1.00 20.00     0.086 N 
ENDROOT
BRANCH   4   7
HETATM    7  N11 UNL     1     -32.536   7.092   2.798  1.00 20.00     0.090 N 
HETATM    8  H31 UNL     1     -31.696   6.560   3.029  1.00 20.00     0.316 HD
BRANCH   7   9
HETATM    9  C8  UNL     1     -32.542   7.379   1.370  1.00 20.00     0.274 C 
BRANCH   9  10
HETATM   10  C9  UNL     1     -33.414   8.595   1.038  1.00 20.00     0.005 C 
HETATM   11  C5  UNL     1     -32.933   9.865   1.741  1.00 20.00     0.011 C 
HETATM   12  C6  UNL     1     -33.529   8.825  -0.470  1.00 20.00     0.011 C 
ENDBRANCH   9  10
ENDBRANCH   7   9
ENDBRANCH   4   7
TORSDOF 3
