REMARK  1 active torsions:
REMARK  status: ('A' for Active; 'I' for Inactive)
REMARK    1  A    between atoms: C5_5  and  N7_7 
ROOT
HETATM    1  C1  UNL     1     -32.823   6.061   2.231  1.00 20.00     0.158 C 
HETATM    2  N7  UNL     1     -33.123   5.012   2.668  1.00 20.00    -0.268 NA
HETATM    3  S9  UNL     1     -32.394   7.471   1.626  1.00 20.00    -0.055 SA
ENDROOT
BRANCH   2   4
HETATM    4  C5  UNL     1     -34.282   5.024   3.560  1.00 20.00     0.139 C 
HETATM    5  C2  UNL     1     -34.140   3.932   4.619  1.00 20.00     0.059 C 
HETATM    6  C3  UNL     1     -33.930   4.687   5.923  1.00 20.00     0.274 C 
HETATM    7  N8  UNL     1     -34.684   5.919   5.693  1.00 20.00     0.086 N 
HETATM    8  C4  UNL     1     -34.325   6.338   4.336  1.00 20.00     0.299 C 
HETATM    9  C6  UNL     1     -34.392   6.942   6.686  1.00 20.00     0.310 C 
ENDBRANCH   2   4
TORSDOF 1
