REMARK  2 active torsions:
REMARK  status: ('A' for Active; 'I' for Inactive)
REMARK    1  A    between atoms: C6_6  and  C7_7 
REMARK    2  A    between atoms: C7_7  and  N8_8 
ROOT
HETATM    1  C1  UNL     1     -32.783   7.834   1.239  1.00 20.00     0.157 C 
HETATM    2  N8  UNL     1     -32.780   6.931   1.993  1.00 20.00    -0.273 NA
HETATM    3  S10 UNL     1     -32.791   9.042   0.200  1.00 20.00    -0.055 SA
ENDROOT
BRANCH   2   4
HETATM    4  C7  UNL     1     -32.569   7.293   3.391  1.00 20.00     0.182 C 
BRANCH   4   5
HETATM    5  C6  UNL     1     -33.780   6.852   4.200  1.00 20.00     0.141 C 
HETATM    6  C4  UNL     1     -33.616   7.213   5.679  1.00 20.00     0.034 C 
HETATM    7  C2  UNL     1     -34.781   6.667   6.498  1.00 20.00     0.005 C 
HETATM    8  C3  UNL     1     -34.987   5.183   6.216  1.00 20.00     0.026 C 
HETATM    9  C5  UNL     1     -35.071   4.927   4.717  1.00 20.00     0.168 C 
HETATM   10  O9  UNL     1     -33.916   5.435   4.050  1.00 20.00    -0.384 OA
ENDBRANCH   4   5
ENDBRANCH   2   4
TORSDOF 2
