REMARK  1 active torsions:
REMARK  status: ('A' for Active; 'I' for Inactive)
REMARK    1  A    between atoms: C3_3  and  O8_8 
ROOT
HETATM    1  C1  UNL     1     -33.306   6.869   3.718  1.00 20.00     0.040 C 
HETATM    2  C2  UNL     1     -33.707   7.080   5.166  1.00 20.00     0.172 C 
HETATM    3  C3  UNL     1     -35.118   5.474   4.235  1.00 20.00     0.264 C 
HETATM    4  C4  UNL     1     -33.812   5.461   3.429  1.00 20.00     0.004 C 
HETATM    5  C5  UNL     1     -32.814   4.407   3.943  1.00 20.00     0.020 C 
HETATM    6  C6  UNL     1     -34.059   5.226   1.938  1.00 20.00     0.020 C 
HETATM    7  O7  UNL     1     -34.853   6.252   5.413  1.00 20.00    -0.361 OA
ENDROOT
BRANCH   3   8
HETATM    8  O8  UNL     1     -35.556   4.162   4.548  1.00 20.00    -0.371 OA
HETATM    9  H20 UNL     1     -36.379   4.258   5.052  1.00 20.00     0.212 HD
ENDBRANCH   3   8
TORSDOF 1
