REMARK  1 active torsions:
REMARK  status: ('A' for Active; 'I' for Inactive)
REMARK    1  A    between atoms: C1_1  and  O10_10 
ROOT
HETATM    1  C1  UNL     1     -33.748   7.061   4.911  1.00 20.00     0.099 C 
HETATM    2  C2  UNL     1     -34.796   6.381   5.429  1.00 20.00     0.026 C 
HETATM    3  C3  UNL     1     -33.754   6.530   3.515  1.00 20.00     0.183 C 
HETATM    4  C4  UNL     1     -34.512   5.196   6.317  1.00 20.00     0.018 C 
HETATM    5  C5  UNL     1     -35.817   6.052   4.370  1.00 20.00     0.030 C 
HETATM    6  C6  UNL     1     -33.845   4.124   5.415  1.00 20.00     0.002 C 
HETATM    7  C7  UNL     1     -34.338   4.101   3.931  1.00 20.00     0.013 C 
HETATM    8  C8  UNL     1     -34.829   5.467   3.382  1.00 20.00     0.063 C 
HETATM    9  O9  UNL     1     -32.938   6.834   2.660  1.00 20.00    -0.290 OA
ENDROOT
BRANCH   1  10
HETATM   10  O10 UNL     1     -32.555   7.348   5.506  1.00 20.00    -0.360 OA
HETATM   11  H20 UNL     1     -31.987   7.849   4.905  1.00 20.00     0.217 HD
ENDBRANCH   1  10
TORSDOF 1
