REMARK  3 active torsions:
REMARK  status: ('A' for Active; 'I' for Inactive)
REMARK    1  A    between atoms: C3_3  and  C4_4 
REMARK    2  A    between atoms: C4_4  and  C5_5 
REMARK    3  A    between atoms: C4_4  and  O6_6 
ROOT
HETATM    1  C4  UNL     1     -33.240   6.209   4.435  1.00 20.00     0.229 C 
ENDROOT
BRANCH   1   2
HETATM    2  C3  UNL     1     -34.515   6.162   5.203  1.00 20.00     0.023 A 
HETATM    3  C1  UNL     1     -35.286   4.875   5.313  1.00 20.00     0.008 A 
HETATM    4  C2  UNL     1     -34.581   5.435   6.517  1.00 20.00     0.008 A 
ENDBRANCH   1   2
BRANCH   1   5
HETATM    5  C5  UNL     1     -33.468   6.353   2.941  1.00 20.00     0.413 C 
HETATM    6  F7  UNL     1     -34.141   5.290   2.447  1.00 20.00    -0.168 F 
HETATM    7  F8  UNL     1     -34.199   7.456   2.668  1.00 20.00    -0.168 F 
HETATM    8  F9  UNL     1     -32.302   6.451   2.267  1.00 20.00    -0.168 F 
ENDBRANCH   1   5
BRANCH   1   9
HETATM    9  O6  UNL     1     -32.454   7.322   4.866  1.00 20.00    -0.386 OA
HETATM   10  H16 UNL     1     -32.283   7.185   5.810  1.00 20.00     0.210 HD
ENDBRANCH   1   9
TORSDOF 3
