REMARK  0 active torsions:
REMARK  status: ('A' for Active; 'I' for Inactive)
ROOT
HETATM    1  C1  UNL     1     -33.491   5.887   3.380  1.00 20.00     0.137 C 
HETATM    2  C2  UNL     1     -34.352   4.631   5.337  1.00 20.00     0.108 C 
HETATM    3  C3  UNL     1     -34.139   5.978   4.684  1.00 20.00     0.326 C 
HETATM    4  N4  UNL     1     -32.974   5.816   2.343  1.00 20.00    -0.191 NA
HETATM    5  F5  UNL     1     -33.387   6.759   5.500  1.00 20.00    -0.190 F 
HETATM    6  F6  UNL     1     -35.336   6.602   4.542  1.00 20.00    -0.190 F 
ENDROOT
TORSDOF 0
