REMARK  4 active torsions:
REMARK  status: ('A' for Active; 'I' for Inactive)
REMARK    1  A    between atoms: C4_4  and  C5_5 
REMARK    2  A    between atoms: C4_4  and  O8_8 
REMARK    3  A    between atoms: C5_5  and  S9_9 
REMARK    4  A    between atoms: C6_6  and  S9_9 
ROOT
HETATM    1  C1  UNL     1     -34.221   6.562   5.205  1.00 20.00     0.074 C 
HETATM    2  C2  UNL     1     -34.445   4.216   4.476  1.00 20.00     0.037 C 
HETATM    3  C6  UNL     1     -34.345   5.674   4.041  1.00 20.00     0.150 C 
HETATM    4  N7  UNL     1     -34.125   7.267   6.122  1.00 20.00    -0.196 NA
ENDROOT
BRANCH   3   5
HETATM    5  S9  UNL     1     -32.940   5.869   2.921  1.00 20.00    -0.148 SA
BRANCH   5   6
HETATM    6  C5  UNL     1     -33.490   7.383   2.075  1.00 20.00     0.101 C 
BRANCH   6   7
HETATM    7  C4  UNL     1     -32.484   7.829   1.025  1.00 20.00     0.177 C 
BRANCH   7   8
HETATM    8  O8  UNL     1     -32.943   9.009   0.379  1.00 20.00    -0.395 OA
HETATM    9  C3  UNL     1     -32.763  10.156   1.199  1.00 20.00     0.201 C 
ENDBRANCH   7   8
ENDBRANCH   6   7
ENDBRANCH   5   6
ENDBRANCH   3   5
TORSDOF 4
