REMARK  0 active torsions:
REMARK  status: ('A' for Active; 'I' for Inactive)
ROOT
HETATM    1  C1  UNL     1     -32.946   6.571   1.928  1.00 20.00     0.088 C 
HETATM    2  C2  UNL     1     -34.055   5.783   3.917  1.00 20.00    -0.060 C 
HETATM    3  C3  UNL     1     -33.459   5.531   2.744  1.00 20.00     0.097 C 
HETATM    4  C4  UNL     1     -34.614   4.722   4.818  1.00 20.00     0.046 C 
HETATM    5  C5  UNL     1     -34.152   7.152   4.518  1.00 20.00     0.108 C 
HETATM    6  C6  UNL     1     -34.172   5.084   6.226  1.00 20.00     0.078 C 
HETATM    7  N7  UNL     1     -32.525   7.418   1.257  1.00 20.00    -0.192 NA
HETATM    8  S8  UNL     1     -34.294   6.892   6.314  1.00 20.00    -0.165 SA
ENDROOT
TORSDOF 0
