REMARK  1 active torsions:
REMARK  status: ('A' for Active; 'I' for Inactive)
REMARK    1  A    between atoms: C3_3  and  C6_6 
ROOT
HETATM    1  C1  UNL     1     -34.112   6.401   5.462  1.00 20.00     0.088 C 
HETATM    2  C2  UNL     1     -33.234   7.019   4.529  1.00 20.00     0.096 C 
HETATM    3  C3  UNL     1     -33.075   6.579   3.266  1.00 20.00    -0.070 C 
HETATM    4  C7  UNL     1     -32.171   7.191   2.257  1.00 20.00     0.044 C 
HETATM    5  N8  UNL     1     -34.827   5.900   6.226  1.00 20.00    -0.192 NA
ENDROOT
BRANCH   3   6
HETATM    6  C6  UNL     1     -33.852   5.377   2.793  1.00 20.00     0.015 A 
HETATM    7  C4  UNL     1     -33.077   4.248   2.232  1.00 20.00     0.010 A 
HETATM    8  C5  UNL     1     -33.719   4.133   3.582  1.00 20.00     0.010 A 
ENDBRANCH   3   6
TORSDOF 1
