REMARK  2 active torsions:
REMARK  status: ('A' for Active; 'I' for Inactive)
REMARK    1  A    between atoms: C3_3  and  C8_8 
REMARK    2  A    between atoms: C7_7  and  C8_8 
ROOT
HETATM    1  C1  UNL     1     -32.527   7.776   4.595  1.00 20.00     0.053 A 
HETATM    2  C2  UNL     1     -34.168   6.400   5.712  1.00 20.00     0.087 A 
HETATM    3  C3  UNL     1     -32.603   6.955   3.471  1.00 20.00    -0.007 A 
HETATM    4  C4  UNL     1     -33.310   7.499   5.716  1.00 20.00     0.120 A 
HETATM    5  C5  UNL     1     -34.245   5.578   4.588  1.00 20.00     0.158 A 
HETATM    6  C6  UNL     1     -33.462   5.856   3.467  1.00 20.00     0.161 A 
HETATM    7  F10 UNL     1     -33.236   8.288   6.796  1.00 20.00    -0.206 F 
HETATM    8  F11 UNL     1     -35.069   4.523   4.584  1.00 20.00    -0.203 F 
HETATM    9  F12 UNL     1     -33.541   5.061   2.391  1.00 20.00    -0.202 F 
ENDROOT
BRANCH   3  10
HETATM   10  C8  UNL     1     -31.764   7.253   2.274  1.00 20.00     0.111 C 
BRANCH  10  11
HETATM   11  C7  UNL     1     -32.527   7.884   1.130  1.00 20.00     0.235 C 
HETATM   12  O9  UNL     1     -33.735   8.091   1.130  1.00 20.00    -0.307 OA
ENDBRANCH  10  11
ENDBRANCH   3  10
TORSDOF 2
