REMARK  2 active torsions:
REMARK  status: ('A' for Active; 'I' for Inactive)
REMARK    1  A    between atoms: C6_6  and  C9_9 
REMARK    2  A    between atoms: C10_10  and  N12_12 
ROOT
HETATM    1  C1  UNL     1     -33.858   3.166   4.916  1.00 20.00     0.092 C 
HETATM    2  C8  UNL     1     -34.418   4.900   6.588  1.00 20.00     0.056 C 
HETATM    3  C10 UNL     1     -33.821   4.599   5.223  1.00 20.00     0.289 C 
HETATM    4  N11 UNL     1     -33.885   2.032   4.672  1.00 20.00    -0.195 NA
ENDROOT
BRANCH   3   5
HETATM    5  N12 UNL     1     -34.616   5.345   4.185  1.00 20.00    -0.055 N 
HETATM    6  C4  UNL     1     -34.528   4.742   2.805  1.00 20.00     0.237 C 
HETATM    7  C2  UNL     1     -33.189   5.062   2.154  1.00 20.00     0.032 C 
HETATM    8  C6  UNL     1     -32.865   6.562   2.141  1.00 20.00    -0.012 C 
HETATM    9  C3  UNL     1     -33.028   7.164   3.543  1.00 20.00     0.032 C 
HETATM   10  C5  UNL     1     -34.369   6.833   4.186  1.00 20.00     0.237 C 
HETATM   11  H31 UNL     1     -35.630   5.227   4.481  1.00 20.00     0.281 HD
BRANCH   8  12
HETATM   12  C9  UNL     1     -33.706   7.311   1.104  1.00 20.00     0.000 C 
HETATM   13  C7  UNL     1     -33.355   8.762   1.052  1.00 20.00     0.005 C 
ENDBRANCH   8  12
ENDBRANCH   3   5
TORSDOF 2
