REMARK  4 active torsions:
REMARK  status: ('A' for Active; 'I' for Inactive)
REMARK    1  A    between atoms: C4_4  and  N11_11 
REMARK    2  A    between atoms: C7_7  and  C9_9 
REMARK    3  A    between atoms: C8_8  and  N11_11 
REMARK    4  A    between atoms: C9_9  and  N11_11 
ROOT
HETATM    1  C1  UNL     1     -32.523   5.427   2.592  1.00 20.00     0.095 C 
HETATM    2  C9  UNL     1     -32.450   6.753   3.222  1.00 20.00     0.328 C 
HETATM    3  N10 UNL     1     -32.577   4.379   2.095  1.00 20.00    -0.195 NA
ENDROOT
BRANCH   2   4
HETATM    4  C7  UNL     1     -33.121   7.841   2.375  1.00 20.00     0.046 C 
HETATM    5  C5  UNL     1     -32.528   8.018   0.981  1.00 20.00     0.008 C 
ENDBRANCH   2   4
BRANCH   2   6
HETATM    6  N11 UNL     1     -32.999   6.711   4.554  1.00 20.00     0.110 N 
BRANCH   6   7
HETATM    7  C4  UNL     1     -34.408   6.293   4.536  1.00 20.00     0.224 A 
HETATM    8  C2  UNL     1     -34.771   4.848   4.336  1.00 20.00     0.038 A 
HETATM    9  C3  UNL     1     -34.983   5.495   5.673  1.00 20.00     0.038 A 
ENDBRANCH   6   7
BRANCH   6  10
HETATM   10  C8  UNL     1     -32.879   8.016   5.220  1.00 20.00     0.270 C 
HETATM   11  C6  UNL     1     -31.461   8.473   5.258  1.00 20.00     0.037 C 
ENDBRANCH   6  10
ENDBRANCH   2   6
TORSDOF 4
