REMARK  7 active torsions:
REMARK  status: ('A' for Active; 'I' for Inactive)
REMARK    1  A    between atoms: C1_1  and  C6_6 
REMARK    2  A    between atoms: C2_2  and  C7_7 
REMARK    3  A    between atoms: C3_3  and  C8_8 
REMARK    4  A    between atoms: C6_6  and  C10_10 
REMARK    5  A    between atoms: C7_7  and  C11_11 
REMARK    6  A    between atoms: C8_8  and  C10_10 
REMARK    7  A    between atoms: C9_9  and  C11_11 
ROOT
HETATM    1  C1  UNL     1     -33.969   4.452   3.410  1.00 20.00    -0.107 C 
HETATM    2  C2  UNL     1     -33.878   5.060   2.379  1.00 20.00    -0.107 C 
ENDROOT
BRANCH   1   3
HETATM    3  C6  UNL     1     -34.085   3.731   4.685  1.00 20.00     0.094 C 
BRANCH   3   4
HETATM    4  C10 UNL     1     -34.825   4.552   5.742  1.00 20.00     0.019 C 
BRANCH   4   5
HETATM    5  C8  UNL     1     -34.093   5.844   6.112  1.00 20.00     0.079 C 
BRANCH   5   6
HETATM    6  C3  UNL     1     -33.973   6.799   4.937  1.00 20.00     0.123 C 
HETATM    7  C4  UNL     1     -32.572   7.198   4.549  1.00 20.00     0.091 C 
HETATM    8  O12 UNL     1     -34.948   7.232   4.325  1.00 20.00    -0.298 OA
ENDBRANCH   5   6
ENDBRANCH   4   5
ENDBRANCH   3   4
ENDBRANCH   1   3
BRANCH   2   9
HETATM    9  C7  UNL     1     -33.772   5.827   1.130  1.00 20.00     0.094 C 
BRANCH   9  10
HETATM   10  C11 UNL     1     -33.460   7.303   1.387  1.00 20.00     0.012 C 
BRANCH  10  11
HETATM   11  C9  UNL     1     -33.362   8.124   0.097  1.00 20.00    -0.004 C 
HETATM   12  C5  UNL     1     -33.061   9.586   0.391  1.00 20.00     0.005 C 
ENDBRANCH  10  11
ENDBRANCH   9  10
ENDBRANCH   2   9
TORSDOF 7
