REMARK  2 active torsions:
REMARK  status: ('A' for Active; 'I' for Inactive)
REMARK    1  A    between atoms: C3_3  and  C8_8 
REMARK    2  A    between atoms: C7_7  and  C8_8 
ROOT
HETATM    1  C1  UNL     1     -32.721   8.104   0.941  1.00 20.00     0.088 C 
HETATM    2  C2  UNL     1     -32.881   8.007   2.350  1.00 20.00     0.096 C 
HETATM    3  C3  UNL     1     -33.260   6.890   3.000  1.00 20.00    -0.070 C 
HETATM    4  C4  UNL     1     -33.542   5.639   2.201  1.00 20.00     0.044 C 
HETATM    5  N9  UNL     1     -32.588   8.191  -0.209  1.00 20.00    -0.192 NA
ENDROOT
BRANCH   3   6
HETATM    6  C8  UNL     1     -33.429   6.798   4.517  1.00 20.00     0.010 C 
HETATM    7  C6  UNL     1     -33.767   8.167   5.121  1.00 20.00     0.015 C 
BRANCH   6   8
HETATM    8  C7  UNL     1     -34.484   5.766   4.967  1.00 20.00     0.004 C 
HETATM    9  C5  UNL     1     -34.658   5.699   6.479  1.00 20.00     0.006 C 
ENDBRANCH   6   8
ENDBRANCH   3   6
TORSDOF 2
