REMARK  3 active torsions:
REMARK  status: ('A' for Active; 'I' for Inactive)
REMARK    1  A    between atoms: C5_5  and  C9_9 
REMARK    2  A    between atoms: C6_6  and  C10_10 
REMARK    3  A    between atoms: C10_10  and  C11_11 
ROOT
HETATM    1  C1  UNL     1     -34.224   4.793   3.586  1.00 20.00     0.131 C 
HETATM    2  C2  UNL     1     -33.480   4.334   2.352  1.00 20.00     0.079 C 
HETATM    3  C3  UNL     1     -33.165   5.517   1.446  1.00 20.00     0.012 C 
HETATM    4  C4  UNL     1     -33.272   7.095   3.407  1.00 20.00     0.016 C 
HETATM    5  C5  UNL     1     -33.584   5.939   4.363  1.00 20.00     0.055 C 
HETATM    6  C6  UNL     1     -32.435   6.634   2.204  1.00 20.00    -0.013 C 
HETATM    7  O12 UNL     1     -35.232   4.205   3.974  1.00 20.00    -0.298 OA
ENDROOT
BRANCH   6   8
HETATM    8  C10 UNL     1     -32.138   7.808   1.274  1.00 20.00     0.004 C 
BRANCH   8   9
HETATM    9  C11 UNL     1     -33.419   8.368   0.665  1.00 20.00    -0.004 C 
HETATM   10  C8  UNL     1     -33.125   9.554  -0.240  1.00 20.00     0.005 C 
ENDBRANCH   8   9
ENDBRANCH   6   8
BRANCH   5  11
HETATM   11  C9  UNL     1     -34.474   6.411   5.509  1.00 20.00     0.007 C 
HETATM   12  C7  UNL     1     -34.796   5.299   6.454  1.00 20.00     0.006 C 
ENDBRANCH   5  11
TORSDOF 3
