REMARK  2 active torsions:
REMARK  status: ('A' for Active; 'I' for Inactive)
REMARK    1  A    between atoms: C4_4  and  C10_10 
REMARK    2  A    between atoms: C8_8  and  C10_10 
ROOT
HETATM    1  C5  UNL     1     -34.180   4.832   6.321  1.00 20.00     0.002 C 
HETATM    2  C6  UNL     1     -34.575   6.296   6.114  1.00 20.00     0.006 C 
HETATM    3  C7  UNL     1     -34.345   4.148   4.962  1.00 20.00     0.016 C 
HETATM    4  C8  UNL     1     -34.445   6.538   4.605  1.00 20.00     0.004 C 
HETATM    5  C9  UNL     1     -34.962   5.207   4.062  1.00 20.00     0.062 C 
HETATM    6 BR12 UNL     1     -34.588   4.891   2.196  1.00 20.00    -0.091 Br
ENDROOT
BRANCH   4   7
HETATM    7  C10 UNL     1     -33.001   6.897   4.243  1.00 20.00     0.045 C 
BRANCH   7   8
HETATM    8  C4  UNL     1     -32.912   7.580   2.904  1.00 20.00    -0.051 A 
HETATM    9  C1  UNL     1     -32.135   7.094   1.813  1.00 20.00     0.014 A 
HETATM   10  C2  UNL     1     -32.229   7.908   0.706  1.00 20.00     0.050 A 
HETATM   11  S11 UNL     1     -33.252   9.253   0.984  1.00 20.00    -0.113 SA
HETATM   12  C3  UNL     1     -33.571   8.748   2.589  1.00 20.00     0.056 A 
ENDBRANCH   7   8
ENDBRANCH   4   7
TORSDOF 2
