REMARK  3 active torsions:
REMARK  status: ('A' for Active; 'I' for Inactive)
REMARK    1  A    between atoms: C2_2  and  C9_9 
REMARK    2  A    between atoms: C6_6  and  C9_9 
REMARK    3  A    between atoms: C7_7  and  O10_10 
ROOT
HETATM    1  C3  UNL     1     -33.424   4.601   3.204  1.00 20.00     0.003 C 
HETATM    2  C4  UNL     1     -33.427   5.646   2.088  1.00 20.00     0.007 C 
HETATM    3  C5  UNL     1     -33.012   5.334   4.480  1.00 20.00     0.032 C 
HETATM    4  C6  UNL     1     -32.600   6.804   2.640  1.00 20.00     0.018 C 
HETATM    5  C7  UNL     1     -32.999   6.814   4.114  1.00 20.00     0.122 C 
ENDROOT
BRANCH   4   6
HETATM    6  C9  UNL     1     -32.872   8.124   1.934  1.00 20.00     0.040 C 
BRANCH   6   7
HETATM    7  C2  UNL     1     -32.516   8.087   0.468  1.00 20.00    -0.093 C 
HETATM    8  C1  UNL     1     -31.511   7.325   0.009  1.00 20.00     0.014 C 
HETATM    9  C8  UNL     1     -33.313   8.966  -0.451  1.00 20.00     0.042 C 
ENDBRANCH   6   7
ENDBRANCH   4   6
BRANCH   5  10
HETATM   10  O10 UNL     1     -32.062   7.534   4.892  1.00 20.00    -0.395 OA
HETATM   11  H26 UNL     1     -32.323   7.430   5.824  1.00 20.00     0.210 HD
ENDBRANCH   5  10
TORSDOF 3
