REMARK  4 active torsions:
REMARK  status: ('A' for Active; 'I' for Inactive)
REMARK    1  A    between atoms: C5_5  and  C9_9 
REMARK    2  A    between atoms: C6_6  and  C10_10 
REMARK    3  A    between atoms: C9_9  and  C12_12 
REMARK    4  A    between atoms: C11_11  and  C12_12 
ROOT
HETATM    1  C1  UNL     1     -33.738   6.921   5.213  1.00 20.00     0.131 C 
HETATM    2  C2  UNL     1     -34.792   6.291   6.097  1.00 20.00     0.079 C 
HETATM    3  C3  UNL     1     -35.016   4.835   5.711  1.00 20.00     0.012 C 
HETATM    4  C4  UNL     1     -34.175   5.282   3.377  1.00 20.00     0.016 C 
HETATM    5  C5  UNL     1     -33.935   6.759   3.709  1.00 20.00     0.056 C 
HETATM    6  C6  UNL     1     -35.296   4.642   4.213  1.00 20.00    -0.014 C 
HETATM    7  O13 UNL     1     -32.833   7.601   5.696  1.00 20.00    -0.298 OA
ENDROOT
BRANCH   5   8
HETATM    8  C9  UNL     1     -32.740   7.296   2.925  1.00 20.00     0.012 C 
BRANCH   8   9
HETATM    9  C12 UNL     1     -33.106   7.555   1.466  1.00 20.00     0.000 C 
BRANCH   9  10
HETATM   10  C11 UNL     1     -31.899   8.061   0.677  1.00 20.00    -0.005 C 
HETATM   11  C8  UNL     1     -32.245   8.290  -0.786  1.00 20.00     0.005 C 
ENDBRANCH   9  10
ENDBRANCH   8   9
ENDBRANCH   5   8
BRANCH   6  12
HETATM   12  C10 UNL     1     -36.679   5.163   3.816  1.00 20.00     0.000 C 
HETATM   13  C7  UNL     1     -36.961   4.923   2.371  1.00 20.00     0.005 C 
ENDBRANCH   6  12
TORSDOF 4
