REMARK  3 active torsions:
REMARK  status: ('A' for Active; 'I' for Inactive)
REMARK    1  A    between atoms: C5_5  and  C9_9 
REMARK    2  A    between atoms: C6_6  and  C10_10 
REMARK    3  A    between atoms: C9_9  and  C11_11 
ROOT
HETATM    1  C1  UNL     1     -33.360   7.076   3.733  1.00 20.00     0.131 C 
HETATM    2  C2  UNL     1     -34.462   6.462   4.569  1.00 20.00     0.079 C 
HETATM    3  C3  UNL     1     -34.281   4.954   4.668  1.00 20.00     0.012 C 
HETATM    4  C4  UNL     1     -32.973   4.931   2.514  1.00 20.00     0.016 C 
HETATM    5  C5  UNL     1     -33.134   6.448   2.362  1.00 20.00     0.055 C 
HETATM    6  C6  UNL     1     -34.147   4.305   3.283  1.00 20.00    -0.014 C 
HETATM    7  O12 UNL     1     -32.758   8.077   4.116  1.00 20.00    -0.298 OA
ENDROOT
BRANCH   5   8
HETATM    8  C9  UNL     1     -31.922   7.051   1.658  1.00 20.00     0.012 C 
BRANCH   8   9
HETATM    9  C11 UNL     1     -32.276   8.372   0.982  1.00 20.00    -0.004 C 
HETATM   10  C8  UNL     1     -33.348   8.180  -0.079  1.00 20.00     0.005 C 
ENDBRANCH   8   9
ENDBRANCH   5   8
BRANCH   6  11
HETATM   11  C10 UNL     1     -33.959   2.795   3.414  1.00 20.00     0.000 C 
HETATM   12  C7  UNL     1     -35.102   2.157   4.133  1.00 20.00     0.005 C 
ENDBRANCH   6  11
TORSDOF 3
