REMARK  1 active torsions:
REMARK  status: ('A' for Active; 'I' for Inactive)
REMARK    1  A    between atoms: C6_6  and  O8_8 
ROOT
HETATM    1  C1  UNL     1     -33.520   6.940   6.030  1.00 20.00    -0.023 C 
HETATM    2  C2  UNL     1     -34.592   6.128   6.060  1.00 20.00     0.001 C 
HETATM    3  C3  UNL     1     -32.102   7.273   3.727  1.00 20.00     0.009 C 
HETATM    4  C4  UNL     1     -33.104   6.669   2.658  1.00 20.00     0.009 C 
HETATM    5  C5  UNL     1     -33.331   7.304   4.625  1.00 20.00     0.015 C 
HETATM    6  C6  UNL     1     -35.044   5.761   4.652  1.00 20.00     0.145 C 
HETATM    7  C7  UNL     1     -33.737   5.960   3.892  1.00 20.00     0.026 C 
ENDROOT
BRANCH   6   8
HETATM    8  O8  UNL     1     -35.431   4.399   4.602  1.00 20.00    -0.391 OA
HETATM    9  H18 UNL     1     -36.164   4.288   5.232  1.00 20.00     0.210 HD
ENDBRANCH   6   8
TORSDOF 1
