REMARK  0 active torsions:
REMARK  status: ('A' for Active; 'I' for Inactive)
ROOT
HETATM    1  C1  UNL     1     -33.441   4.272   2.901  1.00 20.00    -0.029 C 
HETATM    2  C2  UNL     1     -34.455   4.488   3.754  1.00 20.00    -0.014 C 
HETATM    3  C3  UNL     1     -33.741   6.814   4.551  1.00 20.00     0.143 C 
HETATM    4  C4  UNL     1     -32.358   5.225   2.493  1.00 20.00     0.032 C 
HETATM    5  C5  UNL     1     -32.091   7.788   2.789  1.00 20.00     0.018 A 
HETATM    6  C6  UNL     1     -33.491   7.447   3.231  1.00 20.00     0.061 A 
HETATM    7  C7  UNL     1     -32.807   6.619   2.174  1.00 20.00     0.001 A 
HETATM    8  C8  UNL     1     -34.811   5.707   4.585  1.00 20.00     0.031 C 
HETATM    9  C9  UNL     1     -36.151   6.280   4.094  1.00 20.00     0.027 C 
HETATM   10  C10 UNL     1     -34.986   5.250   6.047  1.00 20.00     0.027 C 
HETATM   11  O11 UNL     1     -33.107   7.187   5.532  1.00 20.00    -0.296 OA
ENDROOT
TORSDOF 0
