REMARK  0 active torsions:
REMARK  status: ('A' for Active; 'I' for Inactive)
ROOT
HETATM    1  C1  UNL     1     -35.515   6.661   4.679  1.00 20.00    -0.030 C 
HETATM    2  C2  UNL     1     -35.759   5.458   4.150  1.00 20.00    -0.030 C 
HETATM    3  C3  UNL     1     -32.889   7.543   1.659  1.00 20.00     0.128 C 
HETATM    4  C4  UNL     1     -34.259   7.430   4.425  1.00 20.00     0.037 C 
HETATM    5  C5  UNL     1     -34.800   4.734   3.260  1.00 20.00     0.037 C 
HETATM    6  C6  UNL     1     -32.186   7.544   2.997  1.00 20.00     0.088 C 
HETATM    7  C7  UNL     1     -33.934   6.455   1.556  1.00 20.00     0.088 C 
HETATM    8  C8  UNL     1     -33.082   6.595   3.825  1.00 20.00    -0.026 C 
HETATM    9  C9  UNL     1     -33.585   5.555   2.766  1.00 20.00    -0.026 C 
HETATM   10  C10 UNL     1     -32.281   5.960   4.973  1.00 20.00     0.016 C 
HETATM   11  C11 UNL     1     -32.500   4.545   2.316  1.00 20.00     0.016 C 
HETATM   12  O12 UNL     1     -32.643   8.338   0.760  1.00 20.00    -0.298 OA
ENDROOT
TORSDOF 0
