REMARK  1 active torsions:
REMARK  status: ('A' for Active; 'I' for Inactive)
REMARK    1  A    between atoms: C6_6  and  O10_10 
ROOT
HETATM    1  C1  UNL     1     -34.487   4.203   3.599  1.00 20.00     0.003 C 
HETATM    2  C2  UNL     1     -33.463   5.131   2.958  1.00 20.00     0.032 C 
HETATM    3  C3  UNL     1     -34.431   4.294   5.121  1.00 20.00     0.010 C 
HETATM    4  C4  UNL     1     -33.171   6.443   5.804  1.00 20.00     0.017 A 
HETATM    5  C5  UNL     1     -34.099   6.859   4.699  1.00 20.00     0.023 A 
HETATM    6  C6  UNL     1     -33.792   6.593   3.257  1.00 20.00     0.125 C 
HETATM    7  C7  UNL     1     -34.496   5.722   5.626  1.00 20.00    -0.038 A 
HETATM    8  C8  UNL     1     -35.580   5.989   6.634  1.00 20.00     0.015 C 
ENDROOT
BRANCH   6   9
HETATM    9  O10 UNL     1     -32.705   7.420   2.854  1.00 20.00    -0.390 OA
HETATM   10  C9  UNL     1     -32.726   7.657   1.454  1.00 20.00     0.202 C 
ENDBRANCH   6   9
TORSDOF 1
