REMARK  0 active torsions:
REMARK  status: ('A' for Active; 'I' for Inactive)
ROOT
HETATM    1  C1  UNL     1     -33.442   6.670   5.392  1.00 20.00    -0.082 C 
HETATM    2  C2  UNL     1     -33.315   7.612   6.339  1.00 20.00     0.015 C 
HETATM    3  C3  UNL     1     -33.255   5.201   5.702  1.00 20.00     0.038 C 
HETATM    4  C4  UNL     1     -35.091   6.242   3.611  1.00 20.00     0.018 C 
HETATM    5  C5  UNL     1     -33.658   4.471   2.631  1.00 20.00     0.173 C 
HETATM    6  C6  UNL     1     -33.819   7.017   3.958  1.00 20.00     0.043 C 
HETATM    7  C7  UNL     1     -34.772   4.746   3.656  1.00 20.00     0.014 C 
HETATM    8  C8  UNL     1     -34.364   4.315   5.095  1.00 20.00    -0.009 C 
HETATM    9  C9  UNL     1     -32.677   6.657   2.979  1.00 20.00     0.125 C 
HETATM   10  C10 UNL     1     -35.586   4.281   6.025  1.00 20.00     0.011 C 
HETATM   11  C11 UNL     1     -32.864   7.270   1.591  1.00 20.00     0.040 C 
HETATM   12  O12 UNL     1     -32.480   5.241   2.865  1.00 20.00    -0.385 OA
ENDROOT
TORSDOF 0
