REMARK  0 active torsions:
REMARK  status: ('A' for Active; 'I' for Inactive)
ROOT
HETATM    1  C1  UNL     1     -33.815   5.156   3.006  1.00 20.00    -0.082 C 
HETATM    2  C2  UNL     1     -34.258   4.045   2.398  1.00 20.00     0.015 C 
HETATM    3  C3  UNL     1     -32.398   5.652   2.820  1.00 20.00     0.038 C 
HETATM    4  C4  UNL     1     -34.733   7.425   3.303  1.00 20.00     0.018 C 
HETATM    5  C5  UNL     1     -32.916   8.009   4.890  1.00 20.00     0.173 C 
HETATM    6  C6  UNL     1     -34.721   6.008   3.882  1.00 20.00     0.043 C 
HETATM    7  C7  UNL     1     -33.316   8.000   3.404  1.00 20.00     0.014 C 
HETATM    8  C8  UNL     1     -32.327   7.169   2.536  1.00 20.00    -0.009 C 
HETATM    9  C9  UNL     1     -34.266   6.088   5.360  1.00 20.00     0.125 C 
HETATM   10  C10 UNL     1     -32.546   7.441   1.040  1.00 20.00     0.011 C 
HETATM   11  C11 UNL     1     -34.188   4.722   6.033  1.00 20.00     0.040 C 
HETATM   12  O12 UNL     1     -32.983   6.714   5.488  1.00 20.00    -0.385 OA
ENDROOT
TORSDOF 0
