REMARK  1 active torsions:
REMARK  status: ('A' for Active; 'I' for Inactive)
REMARK    1  A    between atoms: C8_8  and  O10_10 
ROOT
HETATM    1  C1  UNL     1     -33.584   7.065   3.907  1.00 20.00    -0.023 C 
HETATM    2  C2  UNL     1     -33.361   6.172   4.887  1.00 20.00     0.001 C 
HETATM    3  C3  UNL     1     -33.554   4.071   2.829  1.00 20.00     0.003 C 
HETATM    4  C4  UNL     1     -34.718   4.333   3.822  1.00 20.00     0.036 C 
HETATM    5  C5  UNL     1     -33.423   5.106   1.689  1.00 20.00     0.005 C 
HETATM    6  C6  UNL     1     -32.810   7.609   1.481  1.00 20.00     0.014 A 
HETATM    7  C7  UNL     1     -32.533   7.339   2.928  1.00 20.00     0.012 A 
HETATM    8  C8  UNL     1     -34.346   5.071   5.132  1.00 20.00     0.140 C 
HETATM    9  C9  UNL     1     -32.405   6.215   1.894  1.00 20.00    -0.006 A 
ENDROOT
BRANCH   8  10
HETATM   10  O10 UNL     1     -35.510   5.558   5.787  1.00 20.00    -0.392 OA
HETATM   11  H24 UNL     1     -36.100   4.797   5.912  1.00 20.00     0.210 HD
ENDBRANCH   8  10
TORSDOF 1
