REMARK  4 active torsions:
REMARK  status: ('A' for Active; 'I' for Inactive)
REMARK    1  A    between atoms: C1_1  and  C3_3 
REMARK    2  A    between atoms: C3_3  and  N6_6 
REMARK    3  A    between atoms: C4_4  and  C5_5 
REMARK    4  A    between atoms: C4_4  and  N6_6 
ROOT
HETATM    1  C4  UNL     1     -33.310   5.929   4.222  1.00 20.00     0.389 C 
ENDROOT
BRANCH   1   2
HETATM    2  C5  UNL     1     -34.482   5.111   4.704  1.00 20.00     0.413 C 
HETATM    3  F8  UNL     1     -34.386   4.885   6.033  1.00 20.00    -0.169 F 
HETATM    4  F9  UNL     1     -35.652   5.748   4.482  1.00 20.00    -0.169 F 
HETATM    5  F10 UNL     1     -34.533   3.912   4.087  1.00 20.00    -0.169 F 
ENDBRANCH   1   2
BRANCH   1   6
HETATM    6  N6  UNL     1     -33.387   6.188   2.785  1.00 20.00     0.099 N 
HETATM    7  C2  UNL     1     -33.354   4.931   2.037  1.00 20.00     0.310 C 
BRANCH   6   8
HETATM    8  C3  UNL     1     -32.294   7.063   2.364  1.00 20.00     0.341 C 
BRANCH   8   9
HETATM    9  C1  UNL     1     -32.693   7.738   1.082  1.00 20.00     0.261 C 
HETATM   10  O7  UNL     1     -32.762   8.960   0.973  1.00 20.00    -0.305 OA
ENDBRANCH   8   9
ENDBRANCH   6   8
ENDBRANCH   1   6
TORSDOF 4
