REMARK  2 active torsions:
REMARK  status: ('A' for Active; 'I' for Inactive)
REMARK    1  A    between atoms: C2_2  and  C8_8 
REMARK    2  A    between atoms: C8_8  and  O9_9 
ROOT
HETATM    1  C3  UNL     1     -34.390   4.602   5.894  1.00 20.00     0.012 C 
HETATM    2  C4  UNL     1     -33.532   6.469   6.253  1.00 20.00     0.012 C 
HETATM    3  C5  UNL     1     -35.297   6.438   4.537  1.00 20.00     0.047 C 
HETATM    4  C6  UNL     1     -35.007   6.034   5.988  1.00 20.00    -0.010 C 
HETATM    5  C7  UNL     1     -33.286   5.408   5.126  1.00 20.00     0.024 C 
HETATM    6  C8  UNL     1     -33.977   5.988   3.885  1.00 20.00     0.079 C 
ENDROOT
BRANCH   6   7
HETATM    7  C2  UNL     1     -34.107   4.947   2.826  1.00 20.00     0.001 C 
HETATM    8  C1  UNL     1     -33.074   4.433   2.149  1.00 20.00     0.010 C 
ENDBRANCH   6   7
BRANCH   6   9
HETATM    9  O9  UNL     1     -33.223   7.072   3.362  1.00 20.00    -0.385 OA
HETATM   10  H21 UNL     1     -33.714   7.411   2.596  1.00 20.00     0.211 HD
ENDBRANCH   6   9
TORSDOF 2
