REMARK  0 active torsions:
REMARK  status: ('A' for Active; 'I' for Inactive)
ROOT
HETATM    1  C1  UNL     1     -33.052   6.909   2.722  1.00 20.00     0.136 C 
HETATM    2  C2  UNL     1     -33.187   8.209   5.067  1.00 20.00     0.018 A 
HETATM    3  C3  UNL     1     -32.479   4.415   2.445  1.00 20.00     0.018 A 
HETATM    4  C4  UNL     1     -34.765   4.487   5.773  1.00 20.00     0.011 A 
HETATM    5  C5  UNL     1     -32.710   7.162   4.127  1.00 20.00     0.060 A 
HETATM    6  C6  UNL     1     -33.494   5.524   2.377  1.00 20.00     0.060 A 
HETATM    7  C7  UNL     1     -33.915   6.906   5.044  1.00 20.00     0.002 A 
HETATM    8  C8  UNL     1     -33.686   4.364   3.352  1.00 20.00     0.002 A 
HETATM    9  C9  UNL     1     -33.746   5.589   5.776  1.00 20.00    -0.005 A 
HETATM   10  C10 UNL     1     -33.546   4.357   4.890  1.00 20.00    -0.005 A 
HETATM   11  O11 UNL     1     -32.949   7.779   1.869  1.00 20.00    -0.297 OA
ENDROOT
TORSDOF 0
