REMARK  2 active torsions:
REMARK  status: ('A' for Active; 'I' for Inactive)
REMARK    1  A    between atoms: C3_3  and  C6_6 
REMARK    2  A    between atoms: C3_3  and  O10_10 
ROOT
HETATM    1  C1  UNL     1     -34.798   5.631   6.265  1.00 20.00    -0.003 C 
HETATM    2  C2  UNL     1     -34.777   4.635   5.371  1.00 20.00     0.132 C 
HETATM    3  C4  UNL     1     -34.195   6.966   5.966  1.00 20.00     0.032 C 
HETATM    4  C5  UNL     1     -33.315   6.892   4.721  1.00 20.00     0.046 C 
HETATM    5  C6  UNL     1     -33.997   6.041   3.654  1.00 20.00     0.227 C 
HETATM    6  O9  UNL     1     -34.272   4.708   4.098  1.00 20.00    -0.348 OA
ENDROOT
BRANCH   5   7
HETATM    7  C3  UNL     1     -33.102   5.856   2.473  1.00 20.00     0.288 C 
HETATM    8  O8  UNL     1     -32.680   4.771   2.097  1.00 20.00    -0.262 OA
BRANCH   7   9
HETATM    9  O10 UNL     1     -32.843   7.067   1.904  1.00 20.00    -0.324 OA
HETATM   10  C7  UNL     1     -31.991   7.036   0.754  1.00 20.00     0.213 C 
ENDBRANCH   7   9
ENDBRANCH   5   7
TORSDOF 2
