REMARK  1 active torsions:
REMARK  status: ('A' for Active; 'I' for Inactive)
REMARK    1  A    between atoms: C2_2  and  C6_6 
ROOT
HETATM    1  C1  UNL     1     -32.659   7.697   3.009  1.00 20.00     0.133 A 
HETATM    2  C2  UNL     1     -32.720   7.246   1.707  1.00 20.00     0.007 A 
HETATM    3  C3  UNL     1     -33.587   5.745   3.379  1.00 20.00     0.143 A 
HETATM    4  N7  UNL     1     -33.157   6.838   3.969  1.00 20.00    -0.245 NA
HETATM    5  S8  UNL     1     -33.425   5.683   1.671  1.00 20.00    -0.066 SA
HETATM    6 BR9  UNL     1     -34.355   4.303   4.369  1.00 20.00    -0.021 Br
ENDROOT
BRANCH   2   7
HETATM    7  C6  UNL     1     -32.232   8.021   0.471  1.00 20.00     0.027 A 
HETATM    8  C4  UNL     1     -32.785   9.404   0.220  1.00 20.00     0.010 A 
HETATM    9  C5  UNL     1     -33.204   8.267  -0.659  1.00 20.00     0.010 A 
ENDBRANCH   2   7
TORSDOF 1
