REMARK  1 active torsions:
REMARK  status: ('A' for Active; 'I' for Inactive)
REMARK    1  A    between atoms: C4_4  and  C8_8 
ROOT
HETATM    1  C1  UNL     1     -32.769   5.855   1.860  1.00 20.00     0.012 A 
HETATM    2  C2  UNL     1     -33.342   5.004   2.799  1.00 20.00     0.040 A 
HETATM    3  C3  UNL     1     -33.243   7.684   3.304  1.00 20.00     0.125 A 
HETATM    4  C4  UNL     1     -32.715   7.222   2.109  1.00 20.00    -0.036 A 
HETATM    5  C5  UNL     1     -33.842   5.566   3.962  1.00 20.00     0.102 A 
HETATM    6  N9  UNL     1     -33.807   6.889   4.240  1.00 20.00    -0.253 NA
HETATM    7 BR10 UNL     1     -34.629   4.423   5.259  1.00 20.00    -0.029 Br
ENDROOT
BRANCH   4   8
HETATM    8  C8  UNL     1     -32.107   8.157   1.126  1.00 20.00     0.020 A 
HETATM    9  C6  UNL     1     -32.921   9.321   0.617  1.00 20.00     0.010 A 
HETATM   10  C7  UNL     1     -32.620   8.171  -0.292  1.00 20.00     0.010 A 
ENDBRANCH   4   8
TORSDOF 1
