REMARK  1 active torsions:
REMARK  status: ('A' for Active; 'I' for Inactive)
REMARK    1  A    between atoms: C4_4  and  C7_7 
ROOT
HETATM    1  C1  UNL     1     -33.775   6.040   6.174  1.00 20.00     0.056 A 
HETATM    2  C2  UNL     1     -33.504   6.640   5.019  1.00 20.00     0.010 A 
HETATM    3  C3  UNL     1     -35.041   5.345   5.978  1.00 20.00     0.157 A 
HETATM    4  C4  UNL     1     -34.559   6.382   4.011  1.00 20.00     0.157 A 
HETATM    5  N8  UNL     1     -35.683   4.630   6.830  1.00 20.00    -0.278 NA
HETATM    6  O9  UNL     1     -35.497   5.553   4.711  1.00 20.00    -0.325 OA
HETATM    7  H20 UNL     1     -36.543   4.271   6.398  1.00 20.00     0.189 HD
ENDROOT
BRANCH   4   8
HETATM    8  C7  UNL     1     -34.048   5.641   2.788  1.00 20.00     0.011 C 
HETATM    9  C5  UNL     1     -32.974   6.458   2.065  1.00 20.00     0.012 C 
HETATM   10  C6  UNL     1     -33.498   4.267   3.173  1.00 20.00     0.012 C 
ENDBRANCH   4   8
TORSDOF 1
