REMARK  1 active torsions:
REMARK  status: ('A' for Active; 'I' for Inactive)
REMARK    1  A    between atoms: C3_3  and  C7_7 
ROOT
HETATM    1  C1  UNL     1     -33.315   6.759   4.033  1.00 20.00     0.034 A 
HETATM    2  C2  UNL     1     -33.281   4.955   2.569  1.00 20.00     0.058 A 
HETATM    3  C3  UNL     1     -32.917   6.271   2.755  1.00 20.00    -0.046 A 
HETATM    4  C4  UNL     1     -33.967   5.799   4.775  1.00 20.00     0.051 A 
HETATM    5  S8  UNL     1     -34.098   4.315   3.931  1.00 20.00    -0.094 SA
HETATM    6 BR9  UNL     1     -34.647   6.072   6.527  1.00 20.00    -0.043 Br
ENDROOT
BRANCH   3   7
HETATM    7  C7  UNL     1     -32.175   7.108   1.716  1.00 20.00     0.019 A 
HETATM    8  C5  UNL     1     -32.783   8.420   1.262  1.00 20.00     0.010 A 
HETATM    9  C6  UNL     1     -32.769   7.250   0.328  1.00 20.00     0.010 A 
ENDBRANCH   3   7
TORSDOF 1
