REMARK  1 active torsions:
REMARK  status: ('A' for Active; 'I' for Inactive)
REMARK    1  A    between atoms: C5_5  and  C8_8 
ROOT
HETATM    1  C1  UNL     1     -32.813   7.473   5.074  1.00 20.00     0.047 C 
HETATM    2  C2  UNL     1     -32.453   7.313   3.795  1.00 20.00    -0.009 C 
HETATM    3  C3  UNL     1     -34.093   6.915   5.569  1.00 20.00     0.149 C 
HETATM    4  C6  UNL     1     -34.931   6.087   4.622  1.00 20.00     0.084 C 
HETATM    5  C7  UNL     1     -34.770   6.566   3.185  1.00 20.00     0.025 C 
HETATM    6  C8  UNL     1     -33.293   6.632   2.734  1.00 20.00    -0.003 C 
HETATM    7  C11 UNL     1     -32.730   5.223   2.484  1.00 20.00     0.024 C 
HETATM    8  O12 UNL     1     -34.417   7.079   6.744  1.00 20.00    -0.293 OA
ENDROOT
BRANCH   6   9
HETATM    9  C5  UNL     1     -33.228   7.401   1.437  1.00 20.00    -0.076 C 
HETATM   10  C4  UNL     1     -33.049   8.736   1.426  1.00 20.00    -0.027 C 
HETATM   11  C9  UNL     1     -32.964   9.626   0.253  1.00 20.00     0.036 C 
HETATM   12  C10 UNL     1     -33.378   6.568   0.195  1.00 20.00     0.044 C 
ENDBRANCH   6   9
TORSDOF 1
