REMARK  0 active torsions:
REMARK  status: ('A' for Active; 'I' for Inactive)
ROOT
HETATM    1  C1  UNL     1     -33.799   6.426   5.222  1.00 20.00     0.069 C 
HETATM    2  C2  UNL     1     -33.105   4.357   2.915  1.00 20.00     0.007 C 
HETATM    3  C3  UNL     1     -34.461   4.875   3.409  1.00 20.00     0.025 C 
HETATM    4  C4  UNL     1     -32.203   5.581   2.746  1.00 20.00     0.070 C 
HETATM    5  C5  UNL     1     -32.921   8.983   2.373  1.00 20.00     0.197 C 
HETATM    6  C6  UNL     1     -33.188   8.241   1.094  1.00 20.00     0.197 C 
HETATM    7  C7  UNL     1     -34.229   6.333   3.816  1.00 20.00     0.155 C 
HETATM    8  C8  UNL     1     -33.144   6.781   2.830  1.00 20.00     0.180 C 
HETATM    9  N9  UNL     1     -33.460   6.499   6.330  1.00 20.00    -0.197 NA
HETATM   10  O10 UNL     1     -32.454   7.960   3.249  1.00 20.00    -0.352 OA
HETATM   11  O11 UNL     1     -33.748   7.009   1.542  1.00 20.00    -0.352 OA
ENDROOT
TORSDOF 0
