REMARK  1 active torsions:
REMARK  status: ('A' for Active; 'I' for Inactive)
REMARK    1  A    between atoms: C10_10  and  O11_11 
ROOT
HETATM    1  C1  UNL     1     -32.958   7.748   2.217  1.00 20.00     0.011 A 
HETATM    2  C2  UNL     1     -34.194   4.748   1.934  1.00 20.00     0.013 A 
HETATM    3  C3  UNL     1     -34.277   7.467   5.623  1.00 20.00     0.013 A 
HETATM    4  C4  UNL     1     -32.194   6.472   2.458  1.00 20.00    -0.005 A 
HETATM    5  C5  UNL     1     -32.396   7.484   3.587  1.00 20.00    -0.005 A 
HETATM    6  C6  UNL     1     -32.801   5.051   2.441  1.00 20.00    -0.003 A 
HETATM    7  C7  UNL     1     -33.136   6.977   4.800  1.00 20.00    -0.003 A 
HETATM    8  C8  UNL     1     -33.841   4.382   3.352  1.00 20.00     0.019 A 
HETATM    9  C9  UNL     1     -34.542   6.477   4.527  1.00 20.00     0.019 A 
HETATM   10  C10 UNL     1     -34.581   4.993   4.525  1.00 20.00     0.127 C 
ENDROOT
BRANCH  10  11
HETATM   11  O11 UNL     1     -35.938   4.553   4.484  1.00 20.00    -0.395 OA
HETATM   12  H25 UNL     1     -35.915   3.586   4.545  1.00 20.00     0.210 HD
ENDBRANCH  10  11
TORSDOF 1
