REMARK  1 active torsions:
REMARK  status: ('A' for Active; 'I' for Inactive)
REMARK    1  A    between atoms: C9_9  and  C10_10 
ROOT
HETATM    1  C1  UNL     1     -32.998   8.444   1.150  1.00 20.00     0.063 C 
HETATM    2  C10 UNL     1     -32.217   7.375   1.740  1.00 20.00     0.163 C 
HETATM    3  N11 UNL     1     -33.595   9.309   0.659  1.00 20.00    -0.197 NA
ENDROOT
BRANCH   2   4
HETATM    4  C9  UNL     1     -33.116   6.580   2.691  1.00 20.00    -0.033 A 
HETATM    5  C6  UNL     1     -33.995   5.436   2.523  1.00 20.00     0.021 A 
HETATM    6  C7  UNL     1     -34.294   5.498   3.826  1.00 20.00    -0.025 A 
HETATM    7  C4  UNL     1     -35.036   4.960   4.974  1.00 20.00     0.012 A 
HETATM    8  C8  UNL     1     -33.436   6.612   3.989  1.00 20.00    -0.019 A 
HETATM    9  C2  UNL     1     -34.868   5.563   6.170  1.00 20.00     0.001 A 
HETATM   10  C3  UNL     1     -33.978   6.718   6.339  1.00 20.00     0.001 A 
HETATM   11  C5  UNL     1     -33.280   7.240   5.308  1.00 20.00     0.013 A 
ENDBRANCH   2   4
TORSDOF 1
