REMARK  0 active torsions:
REMARK  status: ('A' for Active; 'I' for Inactive)
ROOT
HETATM    1  C1  UNL     1     -33.748   7.742   3.707  1.00 20.00     0.050 C 
HETATM    2  C2  UNL     1     -33.145   7.347   2.572  1.00 20.00     0.003 C 
HETATM    3  C3  UNL     1     -34.025   6.822   4.851  1.00 20.00     0.027 C 
HETATM    4  C4  UNL     1     -33.768   3.820   3.195  1.00 20.00     0.056 A 
HETATM    5  C5  UNL     1     -34.740   4.903   3.599  1.00 20.00     0.133 A 
HETATM    6  C6  UNL     1     -33.920   5.050   2.353  1.00 20.00     0.108 A 
HETATM    7  C7  UNL     1     -32.691   8.389   1.580  1.00 20.00     0.068 C 
HETATM    8  C8  UNL     1     -33.807   7.426   6.223  1.00 20.00     0.070 C 
HETATM    9  N9  UNL     1     -34.430   5.596   4.839  1.00 20.00    -0.287 NA
HETATM   10  N10 UNL     1     -32.867   6.046   2.210  1.00 20.00    -0.387 N 
HETATM   11  H22 UNL     1     -32.187   5.933   1.463  1.00 20.00     0.159 HD
ENDROOT
TORSDOF 0
