REMARK  0 active torsions:
REMARK  status: ('A' for Active; 'I' for Inactive)
ROOT
HETATM    1  C1  UNL     1     -33.782   7.147   6.005  1.00 20.00    -0.021 C 
HETATM    2  C2  UNL     1     -34.587   4.590   5.263  1.00 20.00    -0.021 C 
HETATM    3  C3  UNL     1     -33.009   7.912   5.192  1.00 20.00    -0.018 C 
HETATM    4  C4  UNL     1     -34.366   4.102   4.003  1.00 20.00    -0.024 C 
HETATM    5  C5  UNL     1     -32.854   7.151   2.436  1.00 20.00     0.135 C 
HETATM    6  C6  UNL     1     -33.052   5.670   1.989  1.00 20.00     0.087 C 
HETATM    7  C7  UNL     1     -34.405   6.077   5.205  1.00 20.00     0.036 C 
HETATM    8  C8  UNL     1     -32.575   7.216   3.938  1.00 20.00     0.083 C 
HETATM    9  C9  UNL     1     -33.990   5.260   3.102  1.00 20.00     0.021 C 
HETATM   10  C10 UNL     1     -33.252   5.917   4.247  1.00 20.00     0.020 C 
HETATM   11  O11 UNL     1     -32.843   8.113   1.682  1.00 20.00    -0.297 OA
ENDROOT
TORSDOF 0
