REMARK  0 active torsions:
REMARK  status: ('A' for Active; 'I' for Inactive)
ROOT
HETATM    1  C1  UNL     1     -33.695   6.286   1.696  1.00 20.00     0.052 A 
HETATM    2  C2  UNL     1     -31.868   7.102   3.638  1.00 20.00     0.126 A 
HETATM    3  C3  UNL     1     -33.636   5.661   2.918  1.00 20.00    -0.043 A 
HETATM    4  C4  UNL     1     -32.723   6.065   3.899  1.00 20.00    -0.028 A 
HETATM    5  C5  UNL     1     -32.788   7.321   1.515  1.00 20.00     0.126 A 
HETATM    6  C6  UNL     1     -33.323   3.898   4.371  1.00 20.00     0.020 C 
HETATM    7  C7  UNL     1     -35.348   5.143   4.611  1.00 20.00     0.030 C 
HETATM    8  C8  UNL     1     -34.441   4.535   3.517  1.00 20.00     0.021 C 
HETATM    9  C9  UNL     1     -32.959   5.205   5.112  1.00 20.00     0.040 C 
HETATM   10  C10 UNL     1     -34.339   5.534   5.732  1.00 20.00     0.091 C 
HETATM   11  N11 UNL     1     -31.881   7.743   2.446  1.00 20.00    -0.248 NA
HETATM   12 CL12 UNL     1     -32.741   8.195   0.037  1.00 20.00    -0.062 Cl
HETATM   13 CL13 UNL     1     -34.503   7.221   6.252  1.00 20.00    -0.124 Cl
ENDROOT
TORSDOF 0
