REMARK  3 active torsions:
REMARK  status: ('A' for Active; 'I' for Inactive)
REMARK    1  A    between atoms: C6_6  and  N10_10 
REMARK    2  A    between atoms: C7_7  and  C8_8 
REMARK    3  A    between atoms: C7_7  and  N10_10 
ROOT
HETATM    1  C1  UNL     1     -34.260   5.436   3.722  1.00 20.00     0.086 C 
HETATM    2  C6  UNL     1     -33.083   5.271   2.875  1.00 20.00     0.357 C 
HETATM    3  N9  UNL     1     -35.197   5.564   4.395  1.00 20.00    -0.196 NA
ENDROOT
BRANCH   2   4
HETATM    4  N10 UNL     1     -32.504   6.623   2.539  1.00 20.00    -0.062 N 
HETATM    5  C5  UNL     1     -31.979   7.314   3.774  1.00 20.00     0.270 C 
HETATM    6  H27 UNL     1     -31.680   6.441   1.941  1.00 20.00     0.280 HD
BRANCH   4   7
HETATM    7  C7  UNL     1     -33.446   7.471   1.767  1.00 20.00     0.243 C 
BRANCH   7   8
HETATM    8  C8  UNL     1     -32.722   8.542   0.924  1.00 20.00    -0.027 C 
HETATM    9  C2  UNL     1     -33.505   8.870  -0.359  1.00 20.00     0.016 C 
HETATM   10  C3  UNL     1     -32.620   9.822   1.775  1.00 20.00     0.016 C 
HETATM   11  C4  UNL     1     -31.299   8.092   0.547  1.00 20.00     0.016 C 
ENDBRANCH   7   8
ENDBRANCH   4   7
ENDBRANCH   2   4
TORSDOF 3
