REMARK  0 active torsions:
REMARK  status: ('A' for Active; 'I' for Inactive)
ROOT
HETATM    1  C1  UNL     1     -31.969   6.826   3.151  1.00 20.00    -0.023 C 
HETATM    2  C2  UNL     1     -32.292   5.576   2.664  1.00 20.00    -0.013 C 
HETATM    3  C3  UNL     1     -34.440   4.857   4.314  1.00 20.00     0.140 C 
HETATM    4  C4  UNL     1     -34.722   5.773   5.535  1.00 20.00     0.088 C 
HETATM    5  C5  UNL     1     -32.736   6.469   4.385  1.00 20.00     0.035 C 
HETATM    6  C6  UNL     1     -33.680   5.742   3.294  1.00 20.00     0.042 C 
HETATM    7  C7  UNL     1     -33.777   7.031   5.339  1.00 20.00    -0.033 C 
HETATM    8  C8  UNL     1     -34.667   6.310   2.262  1.00 20.00     0.029 C 
HETATM    9  C9  UNL     1     -34.488   8.287   4.839  1.00 20.00     0.016 C 
HETATM   10  C10 UNL     1     -33.098   7.383   6.676  1.00 20.00     0.016 C 
HETATM   11  O11 UNL     1     -34.805   3.693   4.228  1.00 20.00    -0.297 OA
ENDROOT
TORSDOF 0
