REMARK  2 active torsions:
REMARK  status: ('A' for Active; 'I' for Inactive)
REMARK    1  A    between atoms: C7_7  and  C9_9 
REMARK    2  A    between atoms: C8_8  and  C9_9 
ROOT
HETATM    1  C1  UNL     1     -32.912   9.383  -0.124  1.00 20.00     0.012 C 
HETATM    2  C2  UNL     1     -32.840   8.757   0.897  1.00 20.00    -0.117 C 
HETATM    3  C8  UNL     1     -32.750   7.994   2.149  1.00 20.00     0.093 C 
ENDROOT
BRANCH   3   4
HETATM    4  C9  UNL     1     -33.507   6.682   2.028  1.00 20.00     0.017 C 
BRANCH   4   5
HETATM    5  C7  UNL     1     -33.422   5.881   3.316  1.00 20.00    -0.006 C 
HETATM    6  C5  UNL     1     -34.051   6.604   4.509  1.00 20.00     0.082 C 
HETATM    7  C3  UNL     1     -34.428   5.451   5.403  1.00 20.00     0.127 C 
HETATM    8  C4  UNL     1     -34.329   4.124   4.697  1.00 20.00     0.079 C 
HETATM    9  O10 UNL     1     -34.773   5.577   6.571  1.00 20.00    -0.298 OA
HETATM   10  C6  UNL     1     -34.183   4.557   3.243  1.00 20.00     0.012 C 
ENDBRANCH   4   5
ENDBRANCH   3   4
TORSDOF 2
