REMARK  0 active torsions:
REMARK  status: ('A' for Active; 'I' for Inactive)
ROOT
HETATM    1  C1  UNL     1     -33.278   4.413   2.802  1.00 20.00     0.005 A 
HETATM    2  C2  UNL     1     -34.017   4.124   3.892  1.00 20.00     0.107 A 
HETATM    3  C3  UNL     1     -33.428   5.942   2.831  1.00 20.00     0.132 A 
HETATM    4  C4  UNL     1     -32.125   6.718   2.942  1.00 20.00     0.031 C 
HETATM    5  O5  UNL     1     -33.695   5.836   5.556  1.00 20.00    -0.223 OA
HETATM    6  O6  UNL     1     -35.828   5.699   4.112  1.00 20.00    -0.223 OA
HETATM    7  S7  UNL     1     -34.401   5.818   4.296  1.00 20.00     0.172 S 
ENDROOT
TORSDOF 0
