REMARK  0 active torsions:
REMARK  status: ('A' for Active; 'I' for Inactive)
ROOT
HETATM    1  C1  UNL     1     -34.347   7.833   1.978  1.00 20.00     0.064 C 
HETATM    2  C2  UNL     1     -33.301   4.037   2.109  1.00 20.00    -0.030 C 
HETATM    3  C3  UNL     1     -32.474   5.076   1.948  1.00 20.00    -0.030 C 
HETATM    4  C4  UNL     1     -34.056   3.805   3.379  1.00 20.00     0.037 C 
HETATM    5  C5  UNL     1     -32.211   6.067   3.036  1.00 20.00     0.038 C 
HETATM    6  C6  UNL     1     -35.255   6.133   6.253  1.00 20.00     0.001 C 
HETATM    7  C7  UNL     1     -34.105   7.138   6.281  1.00 20.00     0.001 C 
HETATM    8  C8  UNL     1     -34.934   4.857   5.487  1.00 20.00     0.011 C 
HETATM    9  C9  UNL     1     -32.985   6.874   5.278  1.00 20.00     0.012 C 
HETATM   10  C10 UNL     1     -35.494   5.926   3.167  1.00 20.00     0.030 C 
HETATM   11  C11 UNL     1     -34.618   7.192   3.249  1.00 20.00     0.103 C 
HETATM   12  C12 UNL     1     -34.472   5.135   4.042  1.00 20.00    -0.027 C 
HETATM   13  C13 UNL     1     -33.462   6.341   3.908  1.00 20.00    -0.013 C 
HETATM   14  N14 UNL     1     -34.130   8.347   0.960  1.00 20.00    -0.197 NA
ENDROOT
TORSDOF 0
