REMARK  1 active torsions:
REMARK  status: ('A' for Active; 'I' for Inactive)
REMARK    1  A    between atoms: C3_3  and  C8_8 
ROOT
HETATM    1  C1  UNL     1     -33.574   5.250   3.341  1.00 20.00     0.147 C 
HETATM    2  C4  UNL     1     -33.077   6.274   6.002  1.00 20.00     0.007 C 
HETATM    3  C5  UNL     1     -33.305   4.775   5.720  1.00 20.00     0.022 C 
HETATM    4  C6  UNL     1     -35.125   6.067   4.864  1.00 20.00     0.027 C 
HETATM    5  C7  UNL     1     -33.884   6.972   4.883  1.00 20.00     0.002 C 
HETATM    6  C8  UNL     1     -34.328   4.794   4.582  1.00 20.00     0.038 C 
HETATM    7  C9  UNL     1     -33.257   6.740   3.467  1.00 20.00     0.018 C 
HETATM    8  C10 UNL     1     -33.980   7.536   2.376  1.00 20.00     0.023 C 
HETATM    9  C11 UNL     1     -31.754   6.998   3.394  1.00 20.00     0.023 C 
HETATM   10  O12 UNL     1     -33.238   4.540   2.404  1.00 20.00    -0.296 OA
ENDROOT
BRANCH   6  11
HETATM   11  C3  UNL     1     -35.114   3.558   4.375  1.00 20.00    -0.020 C 
HETATM   12  C2  UNL     1     -34.582   2.386   4.011  1.00 20.00     0.008 C 
ENDBRANCH   6  11
TORSDOF 1
