REMARK  2 active torsions:
REMARK  status: ('A' for Active; 'I' for Inactive)
REMARK    1  A    between atoms: C6_6  and  C10_10 
REMARK    2  A    between atoms: C10_10  and  O11_11 
ROOT
HETATM    1  C1  UNL     1     -34.050   6.113   4.735  1.00 20.00    -0.024 C 
HETATM    2  C2  UNL     1     -33.057   6.694   4.036  1.00 20.00    -0.081 C 
HETATM    3  C3  UNL     1     -34.796   4.895   4.282  1.00 20.00     0.027 C 
HETATM    4  C4  UNL     1     -34.100   4.163   3.138  1.00 20.00     0.004 C 
HETATM    5  C5  UNL     1     -33.618   5.150   2.083  1.00 20.00     0.012 C 
HETATM    6  C6  UNL     1     -32.624   6.173   2.672  1.00 20.00     0.042 C 
HETATM    7  C7  UNL     1     -32.302   7.859   4.612  1.00 20.00     0.043 C 
ENDROOT
BRANCH   6   8
HETATM    8  C10 UNL     1     -32.402   7.289   1.644  1.00 20.00     0.124 C 
HETATM    9  C8  UNL     1     -32.009   6.727   0.291  1.00 20.00     0.040 C 
BRANCH   8  10
HETATM   10  O11 UNL     1     -33.601   8.041   1.520  1.00 20.00    -0.390 OA
HETATM   11  C9  UNL     1     -33.356   9.325   0.962  1.00 20.00     0.202 C 
ENDBRANCH   8  10
ENDBRANCH   6   8
TORSDOF 2
