REMARK  0 active torsions:
REMARK  status: ('A' for Active; 'I' for Inactive)
ROOT
HETATM    1  C1  UNL     1     -31.859   8.913   3.741  1.00 20.00    -0.017 C 
HETATM    2  C2  UNL     1     -31.600   7.891   4.618  1.00 20.00    -0.019 C 
HETATM    3  C3  UNL     1     -32.703   7.845   1.382  1.00 20.00     0.136 C 
HETATM    4  C4  UNL     1     -32.594   6.447   0.748  1.00 20.00     0.083 C 
HETATM    5  C5  UNL     1     -35.047   4.622   4.261  1.00 20.00     0.000 C 
HETATM    6  C6  UNL     1     -34.329   3.853   3.148  1.00 20.00     0.000 C 
HETATM    7  C7  UNL     1     -34.262   5.726   4.976  1.00 20.00     0.001 C 
HETATM    8  C8  UNL     1     -34.012   4.685   1.906  1.00 20.00     0.005 C 
HETATM    9  C9  UNL     1     -33.889   6.914   4.085  1.00 20.00     0.014 C 
HETATM   10  C10 UNL     1     -31.861   5.606   3.144  1.00 20.00     0.019 C 
HETATM   11  C11 UNL     1     -31.821   7.916   2.618  1.00 20.00     0.090 C 
HETATM   12  C12 UNL     1     -32.583   5.275   1.794  1.00 20.00    -0.007 C 
HETATM   13  C13 UNL     1     -32.383   6.926   3.704  1.00 20.00    -0.009 C 
HETATM   14  O14 UNL     1     -33.370   8.749   0.888  1.00 20.00    -0.297 OA
ENDROOT
TORSDOF 0
