REMARK  0 active torsions:
REMARK  status: ('A' for Active; 'I' for Inactive)
ROOT
HETATM    1  C1  UNL     1     -33.879   6.324   4.256  1.00 20.00    -0.010 C 
HETATM    2  C2  UNL     1     -33.513   7.299   5.324  1.00 20.00     0.155 C 
HETATM    3  C3  UNL     1     -34.305   5.110   4.627  1.00 20.00    -0.078 C 
HETATM    4  C4  UNL     1     -33.720   6.764   2.831  1.00 20.00     0.051 C 
HETATM    5  C5  UNL     1     -32.339   8.213   5.046  1.00 20.00     0.084 C 
HETATM    6  C6  UNL     1     -32.264   8.666   3.591  1.00 20.00     0.017 C 
HETATM    7  C7  UNL     1     -32.391   7.510   2.574  1.00 20.00    -0.043 C 
HETATM    8  C8  UNL     1     -34.696   4.064   3.623  1.00 20.00     0.043 C 
HETATM    9  C9  UNL     1     -34.422   4.714   6.070  1.00 20.00     0.043 C 
HETATM   10  C10 UNL     1     -32.412   8.095   1.150  1.00 20.00     0.015 C 
HETATM   11  C11 UNL     1     -31.192   6.547   2.678  1.00 20.00     0.015 C 
HETATM   12  O12 UNL     1     -34.087   7.309   6.411  1.00 20.00    -0.293 OA
ENDROOT
TORSDOF 0
