REMARK  1 active torsions:
REMARK  status: ('A' for Active; 'I' for Inactive)
REMARK    1  A    between atoms: C4_4  and  C11_11 
ROOT
HETATM    1  C1  UNL     1     -32.712   7.927   4.091  1.00 20.00     0.027 A 
HETATM    2  C2  UNL     1     -34.310   6.159   3.766  1.00 20.00     0.034 A 
HETATM    3  C3  UNL     1     -32.837   7.716   5.455  1.00 20.00     0.117 A 
HETATM    4  C4  UNL     1     -33.466   7.129   3.237  1.00 20.00    -0.047 A 
HETATM    5  C5  UNL     1     -34.362   6.027   5.145  1.00 20.00     0.030 A 
HETATM    6  C12 UNL     1     -35.257   4.995   5.747  1.00 20.00     0.070 C 
HETATM    7  N13 UNL     1     -33.645   6.784   6.006  1.00 20.00    -0.266 NA
ENDROOT
BRANCH   4   8
HETATM    8  C11 UNL     1     -33.369   7.319   1.733  1.00 20.00     0.041 C 
HETATM    9  C7  UNL     1     -33.857   8.678   1.287  1.00 20.00    -0.021 C 
HETATM   10  C6  UNL     1     -33.236   9.410   0.352  1.00 20.00    -0.030 C 
HETATM   11  C8  UNL     1     -32.016   8.942  -0.383  1.00 20.00     0.027 C 
HETATM   12  C9  UNL     1     -31.755   7.444  -0.217  1.00 20.00     0.005 C 
HETATM   13  C10 UNL     1     -31.940   7.009   1.235  1.00 20.00     0.013 C 
ENDBRANCH   4   8
TORSDOF 1
