REMARK  2 active torsions:
REMARK  status: ('A' for Active; 'I' for Inactive)
REMARK    1  A    between atoms: C7_7  and  C9_9 
REMARK    2  A    between atoms: C8_8  and  C9_9 
ROOT
HETATM    1  C1  UNL     1     -33.671   8.484  -0.430  1.00 20.00     0.012 C 
HETATM    2  C2  UNL     1     -32.755   8.232   0.305  1.00 20.00    -0.117 C 
HETATM    3  C8  UNL     1     -31.632   7.924   1.200  1.00 20.00     0.093 C 
ENDROOT
BRANCH   3   4
HETATM    4  C9  UNL     1     -32.088   7.938   2.649  1.00 20.00     0.017 C 
BRANCH   4   5
HETATM    5  C7  UNL     1     -33.181   6.910   2.888  1.00 20.00    -0.006 C 
HETATM    6  C5  UNL     1     -33.704   6.921   4.326  1.00 20.00     0.082 C 
HETATM    7  C3  UNL     1     -34.217   5.512   4.477  1.00 20.00     0.127 C 
HETATM    8  C4  UNL     1     -33.768   4.617   3.351  1.00 20.00     0.079 C 
HETATM    9  O10 UNL     1     -34.919   5.138   5.407  1.00 20.00    -0.298 OA
HETATM   10  C6  UNL     1     -32.700   5.473   2.682  1.00 20.00     0.012 C 
ENDBRANCH   4   5
ENDBRANCH   3   4
TORSDOF 2
