REMARK  0 active torsions:
REMARK  status: ('A' for Active; 'I' for Inactive)
ROOT
HETATM    1  C1  UNL     1     -33.659   4.021   3.283  1.00 20.00    -0.002 C 
HETATM    2  C2  UNL     1     -35.223   5.698   2.264  1.00 20.00    -0.002 C 
HETATM    3  C3  UNL     1     -34.138   3.885   4.529  1.00 20.00    -0.022 C 
HETATM    4  C4  UNL     1     -36.075   5.961   3.267  1.00 20.00    -0.022 C 
HETATM    5  C5  UNL     1     -33.347   6.878   4.414  1.00 20.00     0.079 C 
HETATM    6  C6  UNL     1     -33.799   5.287   2.493  1.00 20.00     0.128 C 
HETATM    7  C7  UNL     1     -34.847   4.899   5.321  1.00 20.00     0.028 A 
HETATM    8  C8  UNL     1     -35.789   5.909   4.707  1.00 20.00     0.028 A 
HETATM    9  C9  UNL     1     -34.457   6.360   5.267  1.00 20.00     0.063 A 
HETATM   10  N10 UNL     1     -33.079   6.365   3.163  1.00 20.00    -0.373 N 
HETATM   11  S11 UNL     1     -32.433   8.121   5.058  1.00 20.00    -0.065 SA
HETATM   12  H20 UNL     1     -32.303   6.781   2.656  1.00 20.00     0.161 HD
ENDROOT
TORSDOF 0
