REMARK  3 active torsions:
REMARK  status: ('A' for Active; 'I' for Inactive)
REMARK    1  A    between atoms: C3_3  and  C7_7 
REMARK    2  A    between atoms: C6_6  and  N9_9 
REMARK    3  A    between atoms: C7_7  and  N9_9 
ROOT
HETATM    1  C1  UNL     1     -35.852   4.900   4.409  1.00 20.00     0.089 C 
HETATM    2  C6  UNL     1     -34.428   5.013   4.099  1.00 20.00     0.395 C 
HETATM    3  N8  UNL     1     -36.982   4.806   4.656  1.00 20.00    -0.195 NA
ENDROOT
BRANCH   2   4
HETATM    4  N9  UNL     1     -34.082   6.392   3.720  1.00 20.00     0.100 N 
HETATM    5  C5  UNL     1     -33.935   7.211   4.934  1.00 20.00     0.311 C 
BRANCH   4   6
HETATM    6  C7  UNL     1     -32.894   6.432   2.914  1.00 20.00     0.300 C 
BRANCH   6   7
HETATM    7  C3  UNL     1     -32.881   7.697   2.118  1.00 20.00    -0.002 C 
HETATM    8  C2  UNL     1     -32.854   7.731   0.778  1.00 20.00    -0.033 C 
HETATM    9  C4  UNL     1     -32.847   8.991  -0.022  1.00 20.00     0.036 C 
ENDBRANCH   6   7
ENDBRANCH   4   6
ENDBRANCH   2   4
TORSDOF 3
