REMARK  1 active torsions:
REMARK  status: ('A' for Active; 'I' for Inactive)
REMARK    1  A    between atoms: C10_10  and  O11_11 
ROOT
HETATM    1  C1  UNL     1     -32.557   5.241   1.488  1.00 20.00    -0.021 C 
HETATM    2  C2  UNL     1     -32.224   7.048   3.348  1.00 20.00    -0.021 C 
HETATM    3  C3  UNL     1     -33.081   4.123   2.038  1.00 20.00    -0.025 C 
HETATM    4  C4  UNL     1     -32.957   7.092   4.481  1.00 20.00    -0.022 C 
HETATM    5  C5  UNL     1     -34.839   4.098   4.210  1.00 20.00     0.041 C 
HETATM    6  C6  UNL     1     -33.010   6.507   2.186  1.00 20.00     0.035 C 
HETATM    7  C7  UNL     1     -33.683   4.507   3.333  1.00 20.00     0.016 C 
HETATM    8  C8  UNL     1     -34.368   6.574   4.292  1.00 20.00     0.042 C 
HETATM    9  C9  UNL     1     -34.173   5.918   2.946  1.00 20.00     0.015 C 
HETATM   10  C10 UNL     1     -34.942   5.376   5.116  1.00 20.00     0.127 C 
ENDROOT
BRANCH  10  11
HETATM   11  O11 UNL     1     -34.210   5.183   6.317  1.00 20.00    -0.395 OA
HETATM   12  H23 UNL     1     -34.602   4.416   6.765  1.00 20.00     0.210 HD
ENDBRANCH  10  11
TORSDOF 1
