REMARK  3 active torsions:
REMARK  status: ('A' for Active; 'I' for Inactive)
REMARK    1  A    between atoms: C6_6  and  C7_7 
REMARK    2  A    between atoms: C8_8  and  C10_10 
REMARK    3  A    between atoms: C9_9  and  C11_11 
ROOT
HETATM    1  C1  UNL     1     -32.800   5.013   2.398  1.00 20.00    -0.021 C 
HETATM    2  C2  UNL     1     -33.996   5.383   1.878  1.00 20.00    -0.020 C 
HETATM    3  C5  UNL     1     -31.961   7.306   2.317  1.00 20.00    -0.003 C 
HETATM    4  C6  UNL     1     -33.068   7.618   1.605  1.00 20.00     0.024 C 
HETATM    5  C8  UNL     1     -32.145   6.123   3.272  1.00 20.00     0.039 C 
HETATM    6  C9  UNL     1     -34.343   6.863   2.065  1.00 20.00     0.056 C 
ENDROOT
BRANCH   4   7
HETATM    7  C7  UNL     1     -33.090   8.696   0.554  1.00 20.00     0.205 C 
HETATM    8  O12 UNL     1     -32.799   9.859   0.961  1.00 20.00    -0.644 OA
HETATM    9  O13 UNL     1     -33.396   8.311  -0.613  1.00 20.00    -0.644 OA
ENDBRANCH   4   7
BRANCH   6  10
HETATM   10  C11 UNL     1     -34.317   7.308   3.543  1.00 20.00     0.029 C 
HETATM   11  C4  UNL     1     -35.023   7.127   4.861  1.00 20.00    -0.024 C 
HETATM   12  C3  UNL     1     -33.760   7.138   5.442  1.00 20.00    -0.024 C 
HETATM   13  C10 UNL     1     -33.312   6.314   4.264  1.00 20.00     0.028 C 
ENDBRANCH   6  10
TORSDOF 3
