REMARK  0 active torsions:
REMARK  status: ('A' for Active; 'I' for Inactive)
ROOT
HETATM    1  C1  UNL     1     -33.062   7.646   5.342  1.00 20.00    -0.029 C 
HETATM    2  C2  UNL     1     -32.525   7.658   4.104  1.00 20.00    -0.014 C 
HETATM    3  C3  UNL     1     -33.396   5.413   2.954  1.00 20.00     0.143 C 
HETATM    4  C4  UNL     1     -34.112   6.738   5.941  1.00 20.00     0.032 C 
HETATM    5  C5  UNL     1     -34.884   4.342   4.920  1.00 20.00     0.018 A 
HETATM    6  C6  UNL     1     -33.663   4.950   4.319  1.00 20.00     0.061 A 
HETATM    7  C7  UNL     1     -34.727   5.831   4.944  1.00 20.00     0.001 A 
HETATM    8  C8  UNL     1     -32.720   6.806   2.841  1.00 20.00     0.031 C 
HETATM    9  C9  UNL     1     -33.542   7.639   1.843  1.00 20.00     0.027 C 
HETATM   10  C10 UNL     1     -31.324   6.534   2.244  1.00 20.00     0.027 C 
HETATM   11  O11 UNL     1     -33.679   4.706   1.994  1.00 20.00    -0.296 OA
ENDROOT
TORSDOF 0
