REMARK  0 active torsions:
REMARK  status: ('A' for Active; 'I' for Inactive)
ROOT
HETATM    1  C1  UNL     1     -33.582   5.829   6.130  1.00 20.00    -0.023 C 
HETATM    2  C2  UNL     1     -34.051   4.727   5.515  1.00 20.00    -0.013 C 
HETATM    3  C3  UNL     1     -33.346   5.274   3.135  1.00 20.00     0.140 C 
HETATM    4  C4  UNL     1     -32.298   6.361   3.278  1.00 20.00     0.088 C 
HETATM    5  C5  UNL     1     -34.043   6.771   5.027  1.00 20.00     0.035 C 
HETATM    6  C6  UNL     1     -34.431   5.476   4.251  1.00 20.00     0.042 C 
HETATM    7  C7  UNL     1     -32.987   7.463   4.125  1.00 20.00    -0.033 C 
HETATM    8  C8  UNL     1     -35.867   5.347   3.787  1.00 20.00     0.029 C 
HETATM    9  C9  UNL     1     -31.971   8.233   4.972  1.00 20.00     0.016 C 
HETATM   10  C10 UNL     1     -33.715   8.453   3.196  1.00 20.00     0.016 C 
HETATM   11  O11 UNL     1     -33.270   4.382   2.297  1.00 20.00    -0.297 OA
ENDROOT
TORSDOF 0
