REMARK  1 active torsions:
REMARK  status: ('A' for Active; 'I' for Inactive)
REMARK    1  A    between atoms: C10_10  and  O12_12 
ROOT
HETATM    1  C1  UNL     1     -32.999   4.116   5.567  1.00 20.00     0.011 A 
HETATM    2  C2  UNL     1     -33.666   7.334   6.078  1.00 20.00     0.013 A 
HETATM    3  C3  UNL     1     -32.966   4.541   2.269  1.00 20.00     0.013 A 
HETATM    4  C4  UNL     1     -34.337   4.763   5.799  1.00 20.00    -0.005 A 
HETATM    5  C5  UNL     1     -34.115   3.875   4.588  1.00 20.00    -0.005 A 
HETATM    6  C6  UNL     1     -34.645   6.253   5.692  1.00 20.00    -0.003 A 
HETATM    7  C7  UNL     1     -34.179   4.392   3.154  1.00 20.00    -0.003 A 
HETATM    8  C8  UNL     1     -34.110   7.211   4.647  1.00 20.00     0.020 A 
HETATM    9  C9  UNL     1     -33.749   5.761   2.671  1.00 20.00     0.020 A 
HETATM   10  C10 UNL     1     -33.141   6.777   3.590  1.00 20.00     0.129 C 
ENDROOT
BRANCH  10  11
HETATM   11  O12 UNL     1     -32.764   7.927   2.828  1.00 20.00    -0.390 OA
HETATM   12  C11 UNL     1     -31.547   7.706   2.135  1.00 20.00     0.202 C 
ENDBRANCH  10  11
TORSDOF 1
