REMARK  0 active torsions:
REMARK  status: ('A' for Active; 'I' for Inactive)
ROOT
HETATM    1  C1  UNL     1     -32.926   4.316   2.637  1.00 20.00    -0.029 C 
HETATM    2  C2  UNL     1     -32.569   5.537   2.208  1.00 20.00    -0.014 C 
HETATM    3  C3  UNL     1     -33.595   6.887   4.126  1.00 20.00     0.143 C 
HETATM    4  C4  UNL     1     -33.792   3.965   3.809  1.00 20.00     0.032 C 
HETATM    5  C5  UNL     1     -35.376   5.389   5.291  1.00 20.00     0.018 A 
HETATM    6  C6  UNL     1     -34.946   6.272   4.148  1.00 20.00     0.061 A 
HETATM    7  C7  UNL     1     -35.041   4.780   3.959  1.00 20.00     0.001 A 
HETATM    8  C8  UNL     1     -32.881   6.915   2.762  1.00 20.00     0.031 C 
HETATM    9  C9  UNL     1     -31.547   7.671   2.932  1.00 20.00     0.027 C 
HETATM   10  C10 UNL     1     -33.747   7.683   1.751  1.00 20.00     0.027 C 
HETATM   11  O11 UNL     1     -33.116   7.336   5.162  1.00 20.00    -0.296 OA
ENDROOT
TORSDOF 0
