REMARK  1 active torsions:
REMARK  status: ('A' for Active; 'I' for Inactive)
REMARK    1  A    between atoms: C3_3  and  C7_7 
ROOT
HETATM    1  C1  UNL     1     -34.210   5.976   5.568  1.00 20.00     0.259 C 
HETATM    2  C4  UNL     1     -34.473   4.519   5.288  1.00 20.00     0.111 C 
HETATM    3  C5  UNL     1     -34.551   4.166   3.818  1.00 20.00     0.013 C 
HETATM    4  C6  UNL     1     -33.360   4.758   3.092  1.00 20.00     0.037 C 
HETATM    5  C7  UNL     1     -33.397   6.267   3.267  1.00 20.00     0.154 C 
HETATM    6  O8  UNL     1     -34.540   6.488   6.636  1.00 20.00    -0.265 OA
HETATM    7  O9  UNL     1     -33.485   6.664   4.654  1.00 20.00    -0.312 OA
ENDROOT
BRANCH   5   8
HETATM    8  C3  UNL     1     -32.180   6.905   2.684  1.00 20.00    -0.005 C 
HETATM    9  C2  UNL     1     -32.209   7.824   1.713  1.00 20.00     0.009 C 
ENDBRANCH   5   8
TORSDOF 1
