REMARK  3 active torsions:
REMARK  status: ('A' for Active; 'I' for Inactive)
REMARK    1  A    between atoms: C2_2  and  N8_8 
REMARK    2  A    between atoms: C6_6  and  C7_7 
REMARK    3  A    between atoms: C6_6  and  N8_8 
ROOT
HETATM    1  N8  UNL     1     -34.079   7.630   3.226  1.00 20.00     0.097 N 
HETATM    2  H23 UNL     1     -34.968   7.380   2.800  1.00 20.00     0.316 HD
ENDROOT
BRANCH   1   3
HETATM    3  C2  UNL     1     -32.996   7.218   2.327  1.00 20.00     0.229 A 
HETATM    4  C1  UNL     1     -31.631   7.840   2.460  1.00 20.00     0.047 A 
HETATM    5  C3  UNL     1     -32.472   8.139   1.239  1.00 20.00    -0.015 A 
HETATM    6  C4  UNL     1     -32.067   7.506  -0.067  1.00 20.00     0.017 C 
HETATM    7  C5  UNL     1     -33.035   9.529   1.099  1.00 20.00     0.017 C 
ENDBRANCH   1   3
BRANCH   1   8
HETATM    8  C6  UNL     1     -33.951   6.974   4.515  1.00 20.00     0.386 C 
BRANCH   8   9
HETATM    9  C7  UNL     1     -34.515   5.576   4.486  1.00 20.00     0.413 C 
HETATM   10  F9  UNL     1     -34.382   4.987   5.695  1.00 20.00    -0.169 F 
HETATM   11  F10 UNL     1     -35.829   5.580   4.176  1.00 20.00    -0.169 F 
HETATM   12  F11 UNL     1     -33.874   4.804   3.583  1.00 20.00    -0.169 F 
ENDBRANCH   8   9
ENDBRANCH   1   8
TORSDOF 3
