REMARK  1 active torsions:
REMARK  status: ('A' for Active; 'I' for Inactive)
REMARK    1  A    between atoms: C6_6  and  N10_10 
ROOT
HETATM    1  C1  UNL     1     -33.867   6.099   4.605  1.00 20.00     0.156 C 
HETATM    2  C2  UNL     1     -33.975   5.122   3.475  1.00 20.00     0.110 C 
HETATM    3  C3  UNL     1     -32.850   7.170   4.313  1.00 20.00     0.350 C 
HETATM    4  C5  UNL     1     -32.747   5.508   2.662  1.00 20.00     0.281 C 
HETATM    5  N10 UNL     1     -32.509   6.944   2.900  1.00 20.00     0.101 N 
HETATM    6  O11 UNL     1     -34.526   6.037   5.635  1.00 20.00    -0.296 OA
ENDROOT
BRANCH   5   7
HETATM    7  C6  UNL     1     -33.332   7.771   2.016  1.00 20.00     0.232 A 
HETATM    8  C4  UNL     1     -32.967   9.208   1.754  1.00 20.00     0.047 A 
HETATM    9  C7  UNL     1     -32.866   8.197   0.635  1.00 20.00    -0.015 A 
HETATM   10  C8  UNL     1     -31.490   7.819   0.150  1.00 20.00     0.017 C 
HETATM   11  C9  UNL     1     -33.904   8.249  -0.457  1.00 20.00     0.017 C 
ENDBRANCH   5   7
TORSDOF 1
