REMARK  2 active torsions:
REMARK  status: ('A' for Active; 'I' for Inactive)
REMARK    1  A    between atoms: C6_6  and  N9_9 
REMARK    2  A    between atoms: C7_7  and  N9_9 
ROOT
HETATM    1  C1  UNL     1     -32.889   9.691   0.692  1.00 20.00     0.013 C 
HETATM    2  C2  UNL     1     -33.035   8.571   1.099  1.00 20.00    -0.087 C 
HETATM    3  C6  UNL     1     -33.211   7.203   1.591  1.00 20.00     0.366 C 
ENDROOT
BRANCH   3   4
HETATM    4  N9  UNL     1     -33.299   7.186   3.051  1.00 20.00     0.112 N 
HETATM    5  C5  UNL     1     -31.965   7.272   3.644  1.00 20.00     0.312 C 
BRANCH   4   6
HETATM    6  C7  UNL     1     -33.985   5.978   3.508  1.00 20.00     0.325 C 
HETATM    7  C3  UNL     1     -34.119   6.002   4.970  1.00 20.00     0.095 C 
HETATM    8  N8  UNL     1     -34.228   6.020   6.125  1.00 20.00    -0.195 NA
HETATM    9  C4  UNL     1     -33.242   4.731   3.048  1.00 20.00     0.059 C 
ENDBRANCH   4   6
ENDBRANCH   3   4
TORSDOF 2
