REMARK  2 active torsions:
REMARK  status: ('A' for Active; 'I' for Inactive)
REMARK    1  A    between atoms: C3_3  and  N10_10 
REMARK    2  A    between atoms: C8_8  and  N10_10 
ROOT
HETATM    1  C1  UNL     1     -33.134   8.441   1.347  1.00 20.00     0.094 C 
HETATM    2  C7  UNL     1     -32.994   5.981   1.237  1.00 20.00     0.059 C 
HETATM    3  C8  UNL     1     -32.423   7.256   1.844  1.00 20.00     0.322 C 
HETATM    4  N9  UNL     1     -33.694   9.377   0.951  1.00 20.00    -0.195 NA
ENDROOT
BRANCH   3   5
HETATM    5  N10 UNL     1     -32.493   7.210   3.295  1.00 20.00     0.106 N 
HETATM    6  H24 UNL     1     -32.063   8.044   3.684  1.00 20.00     0.318 HD
BRANCH   5   7
HETATM    7  C3  UNL     1     -33.888   7.147   3.742  1.00 20.00     0.230 A 
HETATM    8  C2  UNL     1     -34.205   7.082   5.212  1.00 20.00     0.047 A 
HETATM    9  C4  UNL     1     -34.476   5.879   4.337  1.00 20.00    -0.015 A 
HETATM   10  C5  UNL     1     -35.910   5.559   4.005  1.00 20.00     0.017 C 
HETATM   11  C6  UNL     1     -33.604   4.665   4.523  1.00 20.00     0.017 C 
ENDBRANCH   5   7
ENDBRANCH   3   5
TORSDOF 2
