REMARK  3 active torsions:
REMARK  status: ('A' for Active; 'I' for Inactive)
REMARK    1  A    between atoms: C2_2  and  C8_8 
REMARK    2  A    between atoms: C4_4  and  N9_9 
REMARK    3  A    between atoms: C8_8  and  N9_9 
ROOT
HETATM    1  N9  UNL     1     -32.348   6.221   2.842  1.00 20.00     0.093 N 
HETATM    2  H24 UNL     1     -31.817   6.060   3.694  1.00 20.00     0.316 HD
ENDROOT
BRANCH   1   3
HETATM    3  C4  UNL     1     -33.685   5.639   3.005  1.00 20.00     0.229 A 
HETATM    4  C3  UNL     1     -33.851   4.166   3.271  1.00 20.00     0.047 A 
HETATM    5  C5  UNL     1     -34.206   5.164   4.350  1.00 20.00    -0.015 A 
HETATM    6  C6  UNL     1     -33.322   5.227   5.569  1.00 20.00     0.017 C 
HETATM    7  C7  UNL     1     -35.666   5.394   4.644  1.00 20.00     0.017 C 
ENDBRANCH   1   3
BRANCH   1   8
HETATM    8  C8  UNL     1     -32.440   7.648   2.586  1.00 20.00     0.320 C 
BRANCH   8   9
HETATM    9  C2  UNL     1     -32.769   7.955   1.155  1.00 20.00     0.030 C 
HETATM   10  C1  UNL     1     -32.981   7.024   0.217  1.00 20.00     0.034 C 
HETATM   11 CL10 UNL     1     -32.803   9.634   0.724  1.00 20.00    -0.088 Cl
ENDBRANCH   8   9
ENDBRANCH   1   8
TORSDOF 3
