REMARK  0 active torsions:
REMARK  status: ('A' for Active; 'I' for Inactive)
ROOT
HETATM    1  C1  UNL     1     -33.789   7.634   3.654  1.00 20.00     0.060 A 
HETATM    2  C2  UNL     1     -33.540   5.102   2.443  1.00 20.00     0.065 A 
HETATM    3  C3  UNL     1     -32.673   8.148   0.305  1.00 20.00     0.167 A 
HETATM    4  C4  UNL     1     -33.359   7.541   2.312  1.00 20.00     0.076 A 
HETATM    5  C5  UNL     1     -33.964   5.221   3.769  1.00 20.00     0.139 A 
HETATM    6  C6  UNL     1     -33.242   6.275   1.731  1.00 20.00     0.038 A 
HETATM    7  C7  UNL     1     -34.087   6.470   4.368  1.00 20.00     0.074 A 
HETATM    8  N8  UNL     1     -33.029   8.604   1.483  1.00 20.00    -0.253 NA
HETATM    9  F9  UNL     1     -34.251   4.107   4.457  1.00 20.00    -0.204 F 
HETATM   10  S10 UNL     1     -32.703   6.450   0.102  1.00 20.00    -0.080 SA
HETATM   11 CL11 UNL     1     -34.613   6.595   6.005  1.00 20.00    -0.081 Cl
ENDROOT
TORSDOF 0
