REMARK  1 active torsions:
REMARK  status: ('A' for Active; 'I' for Inactive)
REMARK    1  A    between atoms: C6_6  and  N7_7 
ROOT
HETATM    1  C1  UNL     1     -32.733   8.964   0.861  1.00 20.00     0.015 C 
HETATM    2  C2  UNL     1     -32.840   8.150   1.738  1.00 20.00    -0.084 C 
HETATM    3  C4  UNL     1     -32.812   5.738   2.261  1.00 20.00     0.055 C 
HETATM    4  C5  UNL     1     -31.962   7.417   3.931  1.00 20.00     0.055 C 
HETATM    5  C6  UNL     1     -32.967   7.152   2.812  1.00 20.00     0.112 C 
ENDROOT
BRANCH   5   6
HETATM    6  N7  UNL     1     -34.325   7.288   3.350  1.00 20.00    -0.224 NA
HETATM    7  C3  UNL     1     -34.573   6.547   4.224  1.00 20.00     0.333 C 
HETATM    8  O8  UNL     1     -34.827   5.805   5.102  1.00 20.00    -0.260 OA
ENDBRANCH   5   6
TORSDOF 1
