REMARK  0 active torsions:
REMARK  status: ('A' for Active; 'I' for Inactive)
ROOT
HETATM    1  C1  UNL     1     -34.143   7.993   3.702  1.00 20.00     0.042 C 
HETATM    2  C2  UNL     1     -34.606   4.593   5.441  1.00 20.00    -0.026 A 
HETATM    3  C3  UNL     1     -34.025   3.770   4.559  1.00 20.00    -0.026 A 
HETATM    4  C4  UNL     1     -34.125   6.557   3.933  1.00 20.00    -0.050 A 
HETATM    5  C5  UNL     1     -33.538   5.728   3.039  1.00 20.00    -0.067 A 
HETATM    6  C6  UNL     1     -33.866   8.474   2.484  1.00 20.00     0.079 C 
HETATM    7  C7  UNL     1     -34.719   6.075   5.232  1.00 20.00     0.065 A 
HETATM    8  C8  UNL     1     -33.427   4.241   3.266  1.00 20.00     0.061 A 
HETATM    9  C9  UNL     1     -32.939   6.255   1.746  1.00 20.00     0.074 C 
HETATM   10  C10 UNL     1     -33.003   9.746   0.928  1.00 20.00     0.345 C 
HETATM   11  C11 UNL     1     -33.538   7.601   1.331  1.00 20.00     0.184 C 
HETATM   12  O12 UNL     1     -33.671   9.804   2.197  1.00 20.00    -0.328 OA
HETATM   13  O13 UNL     1     -32.617   8.403   0.603  1.00 20.00    -0.354 OA
ENDROOT
TORSDOF 0
