REMARK  0 active torsions:
REMARK  status: ('A' for Active; 'I' for Inactive)
ROOT
HETATM    1  C1  UNL     1     -33.537   8.363   3.698  1.00 20.00     0.035 A 
HETATM    2  C2  UNL     1     -33.081   8.757   2.436  1.00 20.00     0.026 A 
HETATM    3  C3  UNL     1     -33.013   6.449   1.698  1.00 20.00     0.045 A 
HETATM    4  C4  UNL     1     -33.736   6.993   3.974  1.00 20.00     0.077 A 
HETATM    5  C5  UNL     1     -33.470   6.060   2.967  1.00 20.00     0.039 A 
HETATM    6  C6  UNL     1     -32.823   7.811   1.451  1.00 20.00     0.035 A 
HETATM    7  C7  UNL     1     -34.250   5.150   5.072  1.00 20.00     0.253 A 
HETATM    8  N8  UNL     1     -34.182   6.457   5.173  1.00 20.00    -0.213 NA
HETATM    9  F9  UNL     1     -34.654   4.384   6.095  1.00 20.00    -0.176 F 
HETATM   10  S10 UNL     1     -33.796   4.477   3.566  1.00 20.00    -0.037 SA
HETATM   11 CL11 UNL     1     -32.265   8.321  -0.098  1.00 20.00    -0.084 Cl
ENDROOT
TORSDOF 0
