REMARK  0 active torsions:
REMARK  status: ('A' for Active; 'I' for Inactive)
ROOT
HETATM    1  C1  UNL     1     -34.100   4.024   3.680  1.00 20.00     0.089 C 
HETATM    2  C2  UNL     1     -34.589   5.235   4.452  1.00 20.00     0.251 C 
HETATM    3  F3  UNL     1     -35.885   5.470   4.111  1.00 20.00    -0.208 F 
HETATM    4 CL4  UNL     1     -33.620   6.667   4.036  1.00 20.00    -0.066 Cl
HETATM    5 CL5  UNL     1     -34.505   4.930   6.201  1.00 20.00    -0.066 Cl
ENDROOT
TORSDOF 0
