REMARK  0 active torsions:
REMARK  status: ('A' for Active; 'I' for Inactive)
ROOT
HETATM    1  C1  UNL     1     -33.563   5.969   3.215  1.00 20.00     0.317 C 
HETATM    2  C2  UNL     1     -34.032   5.819   4.455  1.00 20.00     0.253 C 
HETATM    3  F3  UNL     1     -33.753   5.013   2.281  1.00 20.00    -0.169 F 
HETATM    4  F4  UNL     1     -32.890   7.093   2.889  1.00 20.00    -0.169 F 
HETATM    5  F5  UNL     1     -33.821   6.799   5.360  1.00 20.00    -0.187 F 
HETATM    6 CL6  UNL     1     -34.897   4.411   4.935  1.00 20.00    -0.046 Cl
ENDROOT
TORSDOF 0
