REMARK  1 active torsions:
REMARK  status: ('A' for Active; 'I' for Inactive)
REMARK    1  A    between atoms: C1_1  and  C2_2 
ROOT
HETATM    1  C2  UNL     1     -34.227   5.059   4.096  1.00 20.00     0.447 C 
HETATM    2  F5  UNL     1     -34.177   3.715   3.993  1.00 20.00    -0.166 F 
HETATM    3  F6  UNL     1     -35.519   5.437   4.003  1.00 20.00    -0.166 F 
HETATM    4  F7  UNL     1     -33.567   5.583   3.042  1.00 20.00    -0.166 F 
ENDROOT
BRANCH   1   5
HETATM    5  C1  UNL     1     -33.624   5.524   5.389  1.00 20.00     0.459 C 
HETATM    6  F3  UNL     1     -34.327   5.012   6.428  1.00 20.00    -0.205 F 
HETATM    7  F4  UNL     1     -33.719   6.873   5.475  1.00 20.00    -0.205 F 
ENDBRANCH   1   5
TORSDOF 1
