REMARK  1 active torsions:
REMARK  status: ('A' for Active; 'I' for Inactive)
REMARK    1  A    between atoms: C4_4  and  C5_5 
ROOT
HETATM    1  C1  UNL     1     -33.124   5.487   2.540  1.00 20.00     0.085 C 
HETATM    2  C3  UNL     1     -31.830   7.300   3.577  1.00 20.00     0.049 C 
HETATM    3  C5  UNL     1     -33.201   6.870   3.044  1.00 20.00     0.121 C 
HETATM    4  N6  UNL     1     -33.061   4.397   2.147  1.00 20.00    -0.195 NA
HETATM    5 CL7  UNL     1     -33.607   7.920   1.645  1.00 20.00    -0.103 Cl
ENDROOT
BRANCH   3   6
HETATM    6  C4  UNL     1     -34.262   7.010   4.155  1.00 20.00     0.036 C 
HETATM    7  C2  UNL     1     -34.039   6.148   5.396  1.00 20.00     0.008 C 
ENDBRANCH   3   6
TORSDOF 1
