REMARK  0 active torsions:
REMARK  status: ('A' for Active; 'I' for Inactive)
ROOT
HETATM    1  C1  UNL     1     -32.846   7.681   1.299  1.00 20.00     0.085 C 
HETATM    2  C2  UNL     1     -34.552   7.132   3.005  1.00 20.00     0.067 C 
HETATM    3  C3  UNL     1     -33.034   5.346   2.096  1.00 20.00     0.067 C 
HETATM    4  C4  UNL     1     -34.985   6.123   4.066  1.00 20.00     0.170 C 
HETATM    5  C5  UNL     1     -33.553   4.439   3.209  1.00 20.00     0.170 C 
HETATM    6  C6  UNL     1     -33.146   6.833   2.463  1.00 20.00     0.129 C 
HETATM    7  N7  UNL     1     -32.609   8.350   0.381  1.00 20.00    -0.195 NA
HETATM    8  O8  UNL     1     -34.890   4.790   3.565  1.00 20.00    -0.391 OA
HETATM    9 CL9  UNL     1     -31.915   7.246   3.709  1.00 20.00    -0.103 Cl
ENDROOT
TORSDOF 0
