REMARK  1 active torsions:
REMARK  status: ('A' for Active; 'I' for Inactive)
REMARK    1  A    between atoms: C7_7  and  N8_8 
ROOT
HETATM    1  C1  UNL     1     -34.932   6.112   5.966  1.00 20.00     0.045 C 
HETATM    2  C2  UNL     1     -33.540   6.460   5.458  1.00 20.00     0.236 C 
HETATM    3  C3  UNL     1     -34.728   5.020   3.879  1.00 20.00     0.251 C 
HETATM    4  C4  UNL     1     -35.248   4.783   5.289  1.00 20.00     0.086 C 
HETATM    5  N8  UNL     1     -33.428   5.764   4.115  1.00 20.00    -0.066 N 
HETATM    6  S9  UNL     1     -37.018   4.416   5.297  1.00 20.00    -0.091 SA
HETATM    7  H24 UNL     1     -32.689   5.052   4.209  1.00 20.00     0.280 HD
ENDROOT
BRANCH   5   8
HETATM    8  C7  UNL     1     -33.031   6.660   2.987  1.00 20.00     0.180 C 
HETATM    9  C5  UNL     1     -32.986   5.836   1.710  1.00 20.00     0.039 C 
HETATM   10  C6  UNL     1     -31.685   7.285   3.317  1.00 20.00     0.039 C 
ENDBRANCH   5   8
TORSDOF 1
