REMARK  2 active torsions:
REMARK  status: ('A' for Active; 'I' for Inactive)
REMARK    1  A    between atoms: C4_4  and  C5_5 
REMARK    2  A    between atoms: C4_4  and  C6_6 
ROOT
HETATM    1  C1  UNL     1     -32.217   7.360   1.873  1.00 20.00     0.079 C 
HETATM    2  C5  UNL     1     -33.229   6.601   2.616  1.00 20.00     0.189 C 
HETATM    3  N7  UNL     1     -31.419   7.965   1.287  1.00 20.00    -0.196 NA
HETATM    4 CL8  UNL     1     -32.990   4.872   2.213  1.00 20.00    -0.109 Cl
ENDROOT
BRANCH   2   5
HETATM    5  C4  UNL     1     -33.110   6.788   4.133  1.00 20.00     0.039 C 
BRANCH   5   6
HETATM    6  C6  UNL     1     -34.367   6.391   4.938  1.00 20.00    -0.020 C 
HETATM    7  C2  UNL     1     -34.740   4.920   4.750  1.00 20.00     0.009 C 
HETATM    8  C3  UNL     1     -34.140   6.679   6.425  1.00 20.00     0.009 C 
ENDBRANCH   5   6
ENDBRANCH   2   5
TORSDOF 2
