REMARK  1 active torsions:
REMARK  status: ('A' for Active; 'I' for Inactive)
REMARK    1  A    between atoms: C5_5  and  C6_6 
ROOT
HETATM    1  C1  UNL     1     -33.145   8.238   1.461  1.00 20.00     0.084 C 
HETATM    2  C6  UNL     1     -32.778   6.861   1.860  1.00 20.00     0.222 C 
HETATM    3  N7  UNL     1     -33.437   9.311   1.130  1.00 20.00    -0.195 NA
HETATM    4 CL9  UNL     1     -33.076   5.792   0.448  1.00 20.00    -0.104 Cl
ENDROOT
BRANCH   2   5
HETATM    5  C5  UNL     1     -33.490   6.360   3.059  1.00 20.00    -0.019 A 
HETATM    6  C2  UNL     1     -33.385   6.953   4.351  1.00 20.00     0.017 A 
HETATM    7  C3  UNL     1     -34.149   6.292   5.287  1.00 20.00     0.050 A 
HETATM    8  S8  UNL     1     -34.988   4.962   4.609  1.00 20.00    -0.113 SA
HETATM    9  C4  UNL     1     -34.330   5.268   3.058  1.00 20.00     0.059 A 
ENDBRANCH   2   5
TORSDOF 1
