REMARK  0 active torsions:
REMARK  status: ('A' for Active; 'I' for Inactive)
ROOT
HETATM    1  C1  UNL     1     -32.924   7.711   1.370  1.00 20.00     0.085 C 
HETATM    2  C2  UNL     1     -34.386   7.123   3.265  1.00 20.00     0.051 C 
HETATM    3  C3  UNL     1     -32.732   5.435   2.294  1.00 20.00     0.051 C 
HETATM    4  C4  UNL     1     -34.625   6.311   4.535  1.00 20.00     0.076 C 
HETATM    5  C5  UNL     1     -32.841   4.490   3.488  1.00 20.00     0.076 C 
HETATM    6  C6  UNL     1     -33.009   6.915   2.610  1.00 20.00     0.127 C 
HETATM    7  N7  UNL     1     -32.857   8.337   0.396  1.00 20.00    -0.195 NA
HETATM    8  S8  UNL     1     -34.495   4.527   4.233  1.00 20.00    -0.169 SA
HETATM    9 CL9  UNL     1     -31.717   7.563   3.685  1.00 20.00    -0.103 Cl
ENDROOT
TORSDOF 0
