REMARK  1 active torsions:
REMARK  status: ('A' for Active; 'I' for Inactive)
REMARK    1  A    between atoms: C5_5  and  C6_6 
ROOT
HETATM    1  C1  UNL     1     -33.284   6.998   2.138  1.00 20.00     0.080 C 
HETATM    2  C6  UNL     1     -33.783   5.831   2.875  1.00 20.00     0.195 C 
HETATM    3  N7  UNL     1     -32.887   7.918   1.551  1.00 20.00    -0.196 NA
HETATM    4 CL9  UNL     1     -32.437   4.672   3.044  1.00 20.00    -0.109 Cl
ENDROOT
BRANCH   2   5
HETATM    5  C5  UNL     1     -34.309   6.216   4.244  1.00 20.00     0.044 C 
HETATM    6  C2  UNL     1     -34.793   5.047   5.074  1.00 20.00     0.035 C 
HETATM    7  C3  UNL     1     -34.775   5.634   6.470  1.00 20.00     0.168 C 
HETATM    8  O8  UNL     1     -33.710   6.596   6.503  1.00 20.00    -0.391 OA
HETATM    9  C4  UNL     1     -33.255   6.817   5.159  1.00 20.00     0.174 C 
ENDBRANCH   2   5
TORSDOF 1
