REMARK  2 active torsions:
REMARK  status: ('A' for Active; 'I' for Inactive)
REMARK    1  A    between atoms: C1_1  and  C3_3 
REMARK       I    between atoms: C1_1  and  N8_8 
REMARK    2  A    between atoms: N8_8  and  O10_10 
ROOT
HETATM    1  C1  UNL     1     -33.510   5.555   3.011  1.00 20.00     0.247 C 
HETATM    2  C6  UNL     1     -34.507   3.779   4.441  1.00 20.00     0.189 C 
HETATM    3  N8  UNL     1     -34.192   5.163   4.136  1.00 20.00    -0.231 N 
HETATM    4  O9  UNL     1     -33.096   4.776   2.150  1.00 20.00    -0.271 OA
ENDROOT
BRANCH   1   5
HETATM    5  C3  UNL     1     -33.262   7.037   2.872  1.00 20.00     0.084 A 
HETATM    6  C2  UNL     1     -31.855   7.517   2.941  1.00 20.00     0.019 A 
HETATM    7  C4  UNL     1     -32.591   7.515   1.632  1.00 20.00    -0.005 A 
HETATM    8  C5  UNL     1     -33.034   8.799   1.019  1.00 20.00     0.011 C 
ENDBRANCH   1   5
BRANCH   3   9
HETATM    9  O10 UNL     1     -34.661   6.060   5.114  1.00 20.00    -0.281 OA
HETATM   10  C7  UNL     1     -33.650   6.238   6.102  1.00 20.00     0.238 C 
ENDBRANCH   3   9
TORSDOF 2
