REMARK  2 active torsions:
REMARK  status: ('A' for Active; 'I' for Inactive)
REMARK    1  A    between atoms: C4_4  and  C5_5 
REMARK    2  A    between atoms: C6_6  and  C10_10 
ROOT
HETATM    1  C1  UNL     1     -31.599   7.811   3.687  1.00 20.00    -0.003 C 
HETATM    2  C2  UNL     1     -32.700   7.294   4.467  1.00 20.00     0.010 C 
HETATM    3  C3  UNL     1     -31.505   7.559   2.373  1.00 20.00    -0.021 C 
HETATM    4  C4  UNL     1     -33.481   6.320   3.976  1.00 20.00    -0.016 C 
HETATM    5  C6  UNL     1     -32.520   6.703   1.646  1.00 20.00     0.016 C 
HETATM    6  C7  UNL     1     -33.271   5.722   2.602  1.00 20.00     0.025 C 
HETATM    7  C8  UNL     1     -32.496   4.404   2.738  1.00 20.00     0.016 C 
ENDROOT
BRANCH   4   8
HETATM    8  C5  UNL     1     -34.587   5.844   4.809  1.00 20.00     0.266 C 
HETATM    9  O11 UNL     1     -35.353   4.960   4.446  1.00 20.00    -0.302 OA
ENDBRANCH   4   8
BRANCH   5  10
HETATM   10  C10 UNL     1     -33.506   7.618   0.911  1.00 20.00     0.005 C 
HETATM   11  C9  UNL     1     -32.801   8.540  -0.026  1.00 20.00     0.006 C 
ENDBRANCH   5  10
TORSDOF 2
