REMARK  1 active torsions:
REMARK  status: ('A' for Active; 'I' for Inactive)
REMARK    1  A    between atoms: C3_3  and  C8_8 
ROOT
HETATM    1  C1  UNL     1     -34.076   3.785   3.719  1.00 20.00    -0.028 C 
HETATM    2  C2  UNL     1     -34.546   4.626   4.655  1.00 20.00    -0.016 C 
HETATM    3  C4  UNL     1     -33.787   4.171   2.292  1.00 20.00     0.042 C 
HETATM    4  C5  UNL     1     -33.638   6.971   4.705  1.00 20.00     0.020 C 
HETATM    5  C6  UNL     1     -32.393   6.631   3.871  1.00 20.00     0.016 C 
HETATM    6  C7  UNL     1     -34.854   6.081   4.421  1.00 20.00     0.070 C 
HETATM    7  C8  UNL     1     -32.634   6.479   2.362  1.00 20.00     0.086 C 
HETATM    8  C9  UNL     1     -33.880   5.672   1.938  1.00 20.00     0.063 C 
HETATM    9  S11 UNL     1     -35.389   6.351   2.703  1.00 20.00    -0.154 SA
ENDROOT
BRANCH   7  10
HETATM   10  C3  UNL     1     -32.654   7.834   1.708  1.00 20.00     0.224 C 
HETATM   11  O10 UNL     1     -33.118   8.819   2.276  1.00 20.00    -0.279 OA
HETATM   12 CL12 UNL     1     -31.960   7.802   0.115  1.00 20.00    -0.043 Cl
ENDBRANCH   7  10
TORSDOF 1
