REMARK  0 active torsions:
REMARK  status: ('A' for Active; 'I' for Inactive)
ROOT
HETATM    1  C1  UNL     1     -34.241   7.573   5.185  1.00 20.00     0.022 A 
HETATM    2  C2  UNL     1     -34.359   5.058   3.331  1.00 20.00     0.120 C 
HETATM    3  C3  UNL     1     -34.618   5.268   5.597  1.00 20.00     0.101 C 
HETATM    4  C4  UNL     1     -33.695   6.437   5.627  1.00 20.00     0.025 A 
HETATM    5  C5  UNL     1     -33.548   6.131   3.227  1.00 20.00    -0.048 C 
HETATM    6  C6  UNL     1     -32.679   7.976   1.625  1.00 20.00     0.014 A 
HETATM    7  C7  UNL     1     -31.920   7.715   4.141  1.00 20.00     0.021 C 
HETATM    8  C8  UNL     1     -32.713   6.543   2.081  1.00 20.00     0.021 A 
HETATM    9  C9  UNL     1     -31.681   7.510   2.651  1.00 20.00    -0.005 A 
HETATM   10  C10 UNL     1     -33.205   6.991   4.383  1.00 20.00     0.004 A 
HETATM   11  N11 UNL     1     -34.952   4.631   4.510  1.00 20.00    -0.276 NA
ENDROOT
TORSDOF 0
