REMARK  1 active torsions:
REMARK  status: ('A' for Active; 'I' for Inactive)
REMARK    1  A    between atoms: C3_3  and  C8_8 
ROOT
HETATM    1  C1  UNL     1     -34.324   4.028   4.033  1.00 20.00    -0.029 C 
HETATM    2  C2  UNL     1     -34.172   4.391   5.311  1.00 20.00    -0.030 C 
HETATM    3  C4  UNL     1     -33.878   4.831   2.853  1.00 20.00     0.045 C 
HETATM    4  C5  UNL     1     -33.558   5.681   5.747  1.00 20.00     0.037 C 
HETATM    5  C6  UNL     1     -34.886   7.212   2.910  1.00 20.00     0.019 C 
HETATM    6  C7  UNL     1     -35.212   7.182   4.408  1.00 20.00     0.012 C 
HETATM    7  C8  UNL     1     -33.621   6.319   3.172  1.00 20.00     0.031 C 
HETATM    8  C9  UNL     1     -33.733   6.779   4.694  1.00 20.00    -0.026 C 
HETATM    9  C11 UNL     1     -32.897   8.010   5.081  1.00 20.00     0.016 C 
ENDROOT
BRANCH   7  10
HETATM   10  C3  UNL     1     -32.339   6.799   2.412  1.00 20.00     0.132 C 
HETATM   11  C10 UNL     1     -32.515   7.931   1.436  1.00 20.00     0.091 C 
HETATM   12  O12 UNL     1     -31.242   6.278   2.604  1.00 20.00    -0.298 OA
ENDBRANCH   7  10
TORSDOF 1
