REMARK  2 active torsions:
REMARK  status: ('A' for Active; 'I' for Inactive)
REMARK    1  A    between atoms: C3_3  and  C8_8 
REMARK    2  A    between atoms: C8_8  and  C10_10 
ROOT
HETATM    1  C1  UNL     1     -34.012   5.955   6.252  1.00 20.00    -0.026 C 
HETATM    2  C2  UNL     1     -33.970   7.025   5.444  1.00 20.00    -0.024 C 
HETATM    3  C4  UNL     1     -35.563   5.607   4.587  1.00 20.00     0.018 C 
HETATM    4  C5  UNL     1     -33.532   4.371   4.401  1.00 20.00     0.025 C 
HETATM    5  C6  UNL     1     -34.584   4.810   5.450  1.00 20.00     0.010 C 
HETATM    6  C7  UNL     1     -34.482   6.582   4.090  1.00 20.00     0.024 C 
HETATM    7  C8  UNL     1     -33.447   5.609   3.447  1.00 20.00     0.020 C 
ENDROOT
BRANCH   7   8
HETATM    8  C3  UNL     1     -33.911   5.258   2.055  1.00 20.00     0.241 C 
HETATM    9  O11 UNL     1     -34.856   5.807   1.499  1.00 20.00    -0.306 OA
ENDBRANCH   7   8
BRANCH   7  10
HETATM   10  C10 UNL     1     -32.029   6.170   3.330  1.00 20.00     0.013 C 
HETATM   11  C9  UNL     1     -31.990   7.390   2.470  1.00 20.00     0.006 C 
ENDBRANCH   7  10
TORSDOF 2
