REMARK  1 active torsions:
REMARK  status: ('A' for Active; 'I' for Inactive)
REMARK    1  A    between atoms: C2_2  and  C4_4 
ROOT
HETATM    1  C1  UNL     1     -35.211   5.820   5.399  1.00 20.00     0.076 A 
HETATM    2  C2  UNL     1     -35.764   5.532   4.219  1.00 20.00     0.053 A 
HETATM    3  C3  UNL     1     -33.722   6.990   3.615  1.00 20.00     0.255 A 
HETATM    4  O5  UNL     1     -32.861   7.634   3.035  1.00 20.00    -0.272 OA
HETATM    5  S7  UNL     1     -33.784   6.806   5.368  1.00 20.00    -0.051 SA
HETATM    6  S8  UNL     1     -35.031   6.149   2.788  1.00 20.00    -0.037 SA
ENDROOT
BRANCH   2   7
HETATM    7  C4  UNL     1     -36.964   4.713   4.111  1.00 20.00     0.278 C 
HETATM    8  O6  UNL     1     -37.538   4.239   5.090  1.00 20.00    -0.301 OA
ENDBRANCH   2   7
TORSDOF 1
