REMARK  0 active torsions:
REMARK  status: ('A' for Active; 'I' for Inactive)
ROOT
HETATM    1  C1  UNL     1     -35.147   4.446   3.989  1.00 20.00     0.096 A 
HETATM    2  C2  UNL     1     -35.029   5.660   5.888  1.00 20.00     0.096 A 
HETATM    3  C3  UNL     1     -34.121   5.347   3.851  1.00 20.00    -0.025 A 
HETATM    4  C4  UNL     1     -34.047   6.107   5.040  1.00 20.00    -0.025 A 
HETATM    5  C5  UNL     1     -33.152   5.653   2.784  1.00 20.00     0.114 A 
HETATM    6  C6  UNL     1     -33.007   7.147   5.120  1.00 20.00     0.114 A 
HETATM    7  N7  UNL     1     -35.695   4.647   5.236  1.00 20.00    -0.374 N 
HETATM    8  S8  UNL     1     -32.130   7.037   3.486  1.00 20.00    -0.160 SA
HETATM    9  H15 UNL     1     -36.472   4.126   5.617  1.00 20.00     0.164 HD
ENDROOT
TORSDOF 0
