REMARK  1 active torsions:
REMARK  status: ('A' for Active; 'I' for Inactive)
REMARK    1  A    between atoms: C6_6  and  C10_10 
ROOT
HETATM    1  C1  UNL     1     -33.449   7.922   1.336  1.00 20.00     0.059 C 
HETATM    2  C10 UNL     1     -34.378   7.599   2.405  1.00 20.00     0.133 C 
HETATM    3  N11 UNL     1     -32.737   8.215   0.468  1.00 20.00    -0.197 NA
ENDROOT
BRANCH   2   4
HETATM    4  C6  UNL     1     -33.690   6.436   3.136  1.00 20.00    -0.025 C 
HETATM    5  C4  UNL     1     -33.475   5.243   2.180  1.00 20.00     0.011 C 
HETATM    6  C2  UNL     1     -33.398   4.000   3.068  1.00 20.00     0.002 C 
HETATM    7  C3  UNL     1     -33.889   4.414   4.456  1.00 20.00     0.010 C 
HETATM    8  C5  UNL     1     -34.551   5.797   4.279  1.00 20.00    -0.040 C 
HETATM    9  C7  UNL     1     -36.033   5.595   3.883  1.00 20.00     0.015 C 
HETATM   10  C8  UNL     1     -34.528   6.582   5.598  1.00 20.00     0.015 C 
HETATM   11  C9  UNL     1     -32.313   6.942   3.623  1.00 20.00     0.017 C 
ENDBRANCH   2   4
TORSDOF 1
