REMARK  2 active torsions:
REMARK  status: ('A' for Active; 'I' for Inactive)
REMARK    1  A    between atoms: C1_1  and  C5_5 
REMARK    2  A    between atoms: C5_5  and  C6_6 
ROOT
HETATM    1  C5  UNL     1     -33.676   6.013   2.923  1.00 20.00     0.190 C 
HETATM    2 CL9  UNL     1     -32.783   4.584   2.325  1.00 20.00    -0.114 Cl
ENDROOT
BRANCH   1   3
HETATM    3  C1  UNL     1     -33.857   5.776   4.415  1.00 20.00     0.144 C 
HETATM    4  C2  UNL     1     -34.508   4.479   4.820  1.00 20.00     0.092 C 
HETATM    5  O7  UNL     1     -33.518   6.606   5.259  1.00 20.00    -0.297 OA
ENDBRANCH   1   3
BRANCH   1   6
HETATM    6  C6  UNL     1     -32.946   7.331   2.606  1.00 20.00     0.119 C 
HETATM    7  C3  UNL     1     -32.736   7.510   1.101  1.00 20.00     0.053 C 
HETATM    8  C4  UNL     1     -33.682   8.553   3.160  1.00 20.00     0.053 C 
HETATM    9  F8  UNL     1     -31.711   7.304   3.190  1.00 20.00    -0.242 F 
ENDBRANCH   1   6
TORSDOF 2
