REMARK  2 active torsions:
REMARK  status: ('A' for Active; 'I' for Inactive)
REMARK    1  A    between atoms: C6_6  and  S8_8 
REMARK    2  A    between atoms: C7_7  and  S9_9 
ROOT
HETATM    1  C1  UNL     1     -35.308   5.426   4.149  1.00 20.00     0.011 C 
HETATM    2  C2  UNL     1     -34.361   5.005   6.293  1.00 20.00     0.020 C 
HETATM    3  C3  UNL     1     -33.562   6.895   4.833  1.00 20.00     0.020 C 
HETATM    4  C4  UNL     1     -34.806   6.168   5.384  1.00 20.00    -0.012 C 
HETATM    5  C5  UNL     1     -33.976   4.695   3.931  1.00 20.00     0.013 C 
HETATM    6  C6  UNL     1     -33.755   3.997   5.297  1.00 20.00     0.050 C 
HETATM    7  C7  UNL     1     -32.965   5.866   3.852  1.00 20.00     0.050 C 
ENDROOT
BRANCH   6   8
HETATM    8  S8  UNL     1     -34.577   2.373   5.382  1.00 20.00    -0.177 SA
HETATM    9  H20 UNL     1     -34.287   2.142   6.669  1.00 20.00     0.102 HD
ENDBRANCH   6   8
BRANCH   7  10
HETATM   10  S9  UNL     1     -32.819   6.537   2.164  1.00 20.00    -0.177 SA
HETATM   11  H21 UNL     1     -32.004   7.548   2.490  1.00 20.00     0.102 HD
ENDBRANCH   7  10
TORSDOF 2
