REMARK  2 active torsions:
REMARK  status: ('A' for Active; 'I' for Inactive)
REMARK    1  A    between atoms: C1_1  and  C5_5 
REMARK    2  A    between atoms: C1_1  and  C6_6 
ROOT
HETATM    1  C1  UNL     1     -33.636   6.318   4.035  1.00 20.00     0.182 C 
HETATM    2  O7  UNL     1     -32.961   7.206   4.563  1.00 20.00    -0.293 OA
ENDROOT
BRANCH   1   3
HETATM    3  C5  UNL     1     -33.394   5.966   2.585  1.00 20.00     0.335 C 
HETATM    4  F8  UNL     1     -32.989   4.672   2.468  1.00 20.00    -0.225 F 
HETATM    5 CL9  UNL     1     -32.112   7.025   1.974  1.00 20.00    -0.081 Cl
ENDBRANCH   1   3
BRANCH   1   6
HETATM    6  C6  UNL     1     -34.701   5.532   4.827  1.00 20.00     0.014 C 
HETATM    7  C2  UNL     1     -34.364   4.036   4.874  1.00 20.00     0.023 C 
HETATM    8  C3  UNL     1     -36.072   5.698   4.146  1.00 20.00     0.023 C 
HETATM    9  C4  UNL     1     -34.785   6.103   6.249  1.00 20.00     0.023 C 
ENDBRANCH   1   6
TORSDOF 2
