REMARK  2 active torsions:
REMARK  status: ('A' for Active; 'I' for Inactive)
REMARK    1  A    between atoms: C1_1  and  C5_5 
REMARK    2  A    between atoms: C1_1  and  C6_6 
ROOT
HETATM    1  C1  UNL     1     -33.729   6.367   4.302  1.00 20.00     0.184 C 
HETATM    2  O7  UNL     1     -33.262   7.202   5.079  1.00 20.00    -0.293 OA
ENDROOT
BRANCH   1   3
HETATM    3  C5  UNL     1     -33.361   6.359   2.820  1.00 20.00     0.052 C 
HETATM    4  C2  UNL     1     -31.959   6.930   2.639  1.00 20.00     0.017 C 
HETATM    5  C3  UNL     1     -33.453   4.950   2.239  1.00 20.00     0.017 C 
ENDBRANCH   1   3
BRANCH   1   6
HETATM    6  C6  UNL     1     -34.687   5.290   4.786  1.00 20.00     0.235 C 
HETATM    7  C4  UNL     1     -34.962   5.420   6.274  1.00 20.00     0.079 C 
HETATM    8  F8  UNL     1     -34.203   4.038   4.555  1.00 20.00    -0.217 F 
HETATM    9 CL9  UNL     1     -36.191   5.485   3.853  1.00 20.00    -0.075 Cl
ENDBRANCH   1   6
TORSDOF 2
