REMARK  1 active torsions:
REMARK  status: ('A' for Active; 'I' for Inactive)
REMARK    1  A    between atoms: C1_1  and  C5_5 
ROOT
HETATM    1  C1  UNL     1     -32.998   6.258   2.697  1.00 20.00     0.141 A 
HETATM    2  C2  UNL     1     -33.845   5.895   4.668  1.00 20.00     0.187 A 
HETATM    3  N6  UNL     1     -33.185   6.787   3.962  1.00 20.00    -0.211 NA
HETATM    4  N7  UNL     1     -33.461   5.047   2.388  1.00 20.00    -0.193 NA
HETATM    5  S8  UNL     1     -34.204   4.475   3.774  1.00 20.00     0.046 SA
HETATM    6 CL9  UNL     1     -34.318   6.085   6.294  1.00 20.00    -0.053 Cl
ENDROOT
BRANCH   1   7
HETATM    7  C5  UNL     1     -32.245   7.081   1.638  1.00 20.00     0.058 A 
HETATM    8  C3  UNL     1     -32.746   8.468   1.310  1.00 20.00     0.013 A 
HETATM    9  C4  UNL     1     -32.927   7.361   0.319  1.00 20.00     0.013 A 
ENDBRANCH   1   7
TORSDOF 1
