REMARK  3 active torsions:
REMARK  status: ('A' for Active; 'I' for Inactive)
REMARK    1  A    between atoms: C4_4  and  N8_8 
REMARK    2  A    between atoms: C6_6  and  C7_7 
REMARK    3  A    between atoms: C6_6  and  N8_8 
ROOT
HETATM    1  C1  UNL     1     -33.772   6.604   4.915  1.00 20.00     0.047 C 
HETATM    2  C2  UNL     1     -34.612   5.575   5.655  1.00 20.00     0.076 C 
HETATM    3  C3  UNL     1     -33.643   4.813   3.266  1.00 20.00     0.109 C 
HETATM    4  C4  UNL     1     -33.940   6.300   3.428  1.00 20.00     0.232 C 
HETATM    5  S9  UNL     1     -34.400   4.033   4.722  1.00 20.00    -0.167 SA
ENDROOT
BRANCH   4   6
HETATM    6  N8  UNL     1     -33.055   7.109   2.599  1.00 20.00     0.090 N 
HETATM    7  C5  UNL     1     -31.736   7.236   3.223  1.00 20.00     0.310 C 
BRANCH   6   8
HETATM    8  C6  UNL     1     -33.633   8.433   2.364  1.00 20.00     0.287 C 
BRANCH   8   9
HETATM    9  C7  UNL     1     -32.975   9.161   1.204  1.00 20.00     0.144 C 
HETATM   10 CL10 UNL     1     -33.150   8.248  -0.316  1.00 20.00    -0.129 Cl
ENDBRANCH   8   9
ENDBRANCH   6   8
ENDBRANCH   4   6
TORSDOF 3
