REMARK  3 active torsions:
REMARK  status: ('A' for Active; 'I' for Inactive)
REMARK    1  A    between atoms: C10_10  and  C12_12 
REMARK    2  A    between atoms: C11_11  and  C12_12 
REMARK    3  A    between atoms: C12_12  and  N13_13 
ROOT
HETATM    1  C1  UNL     1     -32.973   8.942   1.238  1.00 20.00     0.130 C 
HETATM    2  C2  UNL     1     -34.345   8.792   1.854  1.00 20.00     0.106 C 
HETATM    3  C3  UNL     1     -31.805   8.529   2.104  1.00 20.00     0.106 C 
HETATM    4  C8  UNL     1     -34.515   7.410   2.457  1.00 20.00     0.242 C 
HETATM    5  C9  UNL     1     -32.040   7.152   2.701  1.00 20.00     0.242 C 
HETATM    6  N13 UNL     1     -33.375   7.130   3.410  1.00 20.00    -0.065 N 
HETATM    7  O14 UNL     1     -32.810   9.469   0.139  1.00 20.00    -0.298 OA
HETATM    8  H34 UNL     1     -33.366   7.881   4.115  1.00 20.00     0.280 HD
ENDROOT
BRANCH   6   9
HETATM    9  C12 UNL     1     -33.583   5.844   4.161  1.00 20.00     0.196 C 
BRANCH   9  10
HETATM   10  C10 UNL     1     -34.134   4.807   3.197  1.00 20.00     0.017 A 
HETATM   11  C4  UNL     1     -33.227   4.140   2.200  1.00 20.00     0.007 A 
HETATM   12  C5  UNL     1     -33.775   3.356   3.359  1.00 20.00     0.007 A 
ENDBRANCH   9  10
BRANCH   9  13
HETATM   13  C11 UNL     1     -34.527   6.111   5.323  1.00 20.00     0.017 A 
HETATM   14  C6  UNL     1     -34.515   5.215   6.530  1.00 20.00     0.007 A 
HETATM   15  C7  UNL     1     -33.991   6.621   6.632  1.00 20.00     0.007 A 
ENDBRANCH   9  13
ENDBRANCH   6   9
TORSDOF 3
