REMARK  2 active torsions:
REMARK  status: ('A' for Active; 'I' for Inactive)
REMARK    1  A    between atoms: C4_4  and  C5_5 
REMARK    2  A    between atoms: C5_5  and  C6_6 
ROOT
HETATM    1  C1  UNL     1     -35.196   5.314   4.136  1.00 20.00     0.033 C 
HETATM    2  C2  UNL     1     -34.680   4.728   5.434  1.00 20.00     0.168 C 
HETATM    3  C3  UNL     1     -33.896   6.916   5.254  1.00 20.00     0.172 C 
HETATM    4  C4  UNL     1     -34.212   6.430   3.849  1.00 20.00     0.012 C 
HETATM    5  O7  UNL     1     -33.986   5.777   6.123  1.00 20.00    -0.391 OA
ENDROOT
BRANCH   4   6
HETATM    6  C5  UNL     1     -32.964   5.921   3.131  1.00 20.00     0.017 C 
BRANCH   6   7
HETATM    7  C6  UNL     1     -32.008   7.058   2.811  1.00 20.00     0.085 C 
HETATM    8 BR8  UNL     1     -32.869   8.331   1.617  1.00 20.00    -0.096 Br
ENDBRANCH   6   7
ENDBRANCH   4   6
TORSDOF 2
