REMARK  2 active torsions:
REMARK  status: ('A' for Active; 'I' for Inactive)
REMARK    1  A    between atoms: C2_2  and  C6_6 
REMARK       I    between atoms: C2_2  and  N7_7 
REMARK    2  A    between atoms: C5_5  and  C6_6 
ROOT
HETATM    1  C1  UNL     1     -32.575   7.889   1.609  1.00 20.00     0.166 C 
HETATM    2  C2  UNL     1     -33.204   6.494   3.180  1.00 20.00     0.244 C 
HETATM    3  N7  UNL     1     -32.318   7.413   2.651  1.00 20.00    -0.199 NA
HETATM    4  O8  UNL     1     -33.542   5.426   2.669  1.00 20.00    -0.271 OA
HETATM    5  S9  UNL     1     -32.888   8.557   0.197  1.00 20.00    -0.055 SA
ENDROOT
BRANCH   2   6
HETATM    6  C6  UNL     1     -33.756   6.944   4.523  1.00 20.00     0.109 C 
BRANCH   6   7
HETATM    7  C5  UNL     1     -34.749   6.007   5.118  1.00 20.00    -0.006 A 
HETATM    8  C3  UNL     1     -34.294   4.893   6.019  1.00 20.00     0.005 A 
HETATM    9  C4  UNL     1     -35.053   6.059   6.589  1.00 20.00     0.005 A 
ENDBRANCH   6   7
ENDBRANCH   2   6
TORSDOF 2
