REMARK  3 active torsions:
REMARK  status: ('A' for Active; 'I' for Inactive)
REMARK    1  A    between atoms: C4_4  and  C7_7 
REMARK    2  A    between atoms: C7_7  and  C9_9 
REMARK    3  A    between atoms: C8_8  and  C9_9 
ROOT
HETATM    1  C1  UNL     1     -34.653   4.196   5.125  1.00 20.00     0.002 C 
HETATM    2  C2  UNL     1     -33.793   4.242   3.858  1.00 20.00     0.006 C 
HETATM    3  C3  UNL     1     -35.357   5.551   5.213  1.00 20.00     0.020 C 
HETATM    4  C4  UNL     1     -34.097   5.594   3.204  1.00 20.00     0.004 C 
HETATM    5  C5  UNL     1     -34.497   6.496   4.378  1.00 20.00     0.086 C 
HETATM    6 CL10 UNL     1     -33.104   7.064   5.348  1.00 20.00    -0.125 Cl
ENDROOT
BRANCH   4   7
HETATM    7  C7  UNL     1     -32.991   6.105   2.334  1.00 20.00     0.006 C 
BRANCH   7   8
HETATM    8  C9  UNL     1     -33.363   7.435   1.680  1.00 20.00     0.000 C 
BRANCH   8   9
HETATM    9  C8  UNL     1     -32.245   7.937   0.767  1.00 20.00    -0.005 C 
HETATM   10  C6  UNL     1     -32.625   9.243   0.087  1.00 20.00     0.005 C 
ENDBRANCH   8   9
ENDBRANCH   7   8
ENDBRANCH   4   7
TORSDOF 3
