REMARK  2 active torsions:
REMARK  status: ('A' for Active; 'I' for Inactive)
REMARK    1  A    between atoms: C4_4  and  C8_8 
REMARK    2  A    between atoms: C8_8  and  C9_9 
ROOT
HETATM    1  C1  UNL     1     -33.544   6.652   6.189  1.00 20.00     0.002 C 
HETATM    2  C2  UNL     1     -32.887   7.213   4.924  1.00 20.00     0.006 C 
HETATM    3  C3  UNL     1     -34.814   5.933   5.731  1.00 20.00     0.020 C 
HETATM    4  C4  UNL     1     -33.866   6.908   3.786  1.00 20.00     0.004 C 
HETATM    5  C5  UNL     1     -34.591   5.639   4.249  1.00 20.00     0.086 C 
HETATM    6 CL10 UNL     1     -33.613   4.156   4.059  1.00 20.00    -0.125 Cl
ENDROOT
BRANCH   4   7
HETATM    7  C8  UNL     1     -33.202   6.842   2.419  1.00 20.00     0.010 C 
BRANCH   7   8
HETATM    8  C9  UNL     1     -33.008   8.220   1.760  1.00 20.00    -0.022 C 
HETATM    9  C6  UNL     1     -32.133   9.150   2.602  1.00 20.00     0.009 C 
HETATM   10  C7  UNL     1     -32.393   8.050   0.369  1.00 20.00     0.009 C 
ENDBRANCH   7   8
ENDBRANCH   4   7
TORSDOF 2
