REMARK  2 active torsions:
REMARK  status: ('A' for Active; 'I' for Inactive)
REMARK    1  A    between atoms: C4_4  and  C7_7 
REMARK    2  A    between atoms: C7_7  and  C8_8 
ROOT
HETATM    1  C1  UNL     1     -34.791   6.181   6.061  1.00 20.00     0.002 C 
HETATM    2  C2  UNL     1     -33.428   6.714   5.609  1.00 20.00     0.006 C 
HETATM    3  C3  UNL     1     -35.628   6.013   4.791  1.00 20.00     0.020 C 
HETATM    4  C4  UNL     1     -33.563   6.958   4.102  1.00 20.00     0.004 C 
HETATM    5  C5  UNL     1     -34.613   5.935   3.654  1.00 20.00     0.086 C 
HETATM    6 CL9  UNL     1     -33.971   4.273   3.519  1.00 20.00    -0.125 Cl
ENDROOT
BRANCH   4   7
HETATM    7  C7  UNL     1     -32.234   6.925   3.364  1.00 20.00     0.005 C 
BRANCH   7   8
HETATM    8  C8  UNL     1     -32.423   7.135   1.863  1.00 20.00    -0.004 C 
HETATM    9  C6  UNL     1     -33.100   8.463   1.568  1.00 20.00     0.005 C 
ENDBRANCH   7   8
ENDBRANCH   4   7
TORSDOF 2
