REMARK  1 active torsions:
REMARK  status: ('A' for Active; 'I' for Inactive)
REMARK    1  A    between atoms: C4_4  and  C9_9 
ROOT
HETATM    1  C1  UNL     1     -31.750   7.701   2.910  1.00 20.00     0.006 C 
HETATM    2  C2  UNL     1     -32.684   7.943   4.093  1.00 20.00     0.021 C 
HETATM    3  C3  UNL     1     -32.962   5.550   2.388  1.00 20.00     0.010 C 
HETATM    4  C4  UNL     1     -32.392   6.852   1.806  1.00 20.00    -0.014 C 
HETATM    5  C5  UNL     1     -33.913   5.770   3.579  1.00 20.00     0.000 C 
HETATM    6  C6  UNL     1     -33.230   6.631   4.661  1.00 20.00     0.086 C 
HETATM    7  C7  UNL     1     -34.365   4.407   4.119  1.00 20.00     0.011 C 
HETATM    8 CL10 UNL     1     -34.361   7.016   5.997  1.00 20.00    -0.125 Cl
ENDROOT
BRANCH   4   9
HETATM    9  C9  UNL     1     -33.450   7.637   1.027  1.00 20.00     0.000 C 
HETATM   10  C8  UNL     1     -32.880   8.877   0.421  1.00 20.00     0.005 C 
ENDBRANCH   4   9
TORSDOF 1
