REMARK  4 active torsions:
REMARK  status: ('A' for Active; 'I' for Inactive)
REMARK    1  A    between atoms: C5_5  and  C6_6 
REMARK    2  A    between atoms: C5_5  and  C7_7 
REMARK    3  A    between atoms: C6_6  and  C8_8 
REMARK    4  A    between atoms: C7_7  and  C9_9 
ROOT
HETATM    1  C5  UNL     1     -32.397   7.055   3.430  1.00 20.00     0.002 C 
ENDROOT
BRANCH   1   2
HETATM    2  C6  UNL     1     -32.139   7.273   1.932  1.00 20.00     0.020 C 
BRANCH   2   3
HETATM    3  C8  UNL     1     -33.126   8.211   1.223  1.00 20.00     0.078 C 
HETATM    4  C1  UNL     1     -32.808   8.436  -0.249  1.00 20.00     0.026 C 
HETATM    5 CL10 UNL     1     -33.217   9.787   2.064  1.00 20.00    -0.125 Cl
ENDBRANCH   2   3
ENDBRANCH   1   2
BRANCH   1   6
HETATM    6  C7  UNL     1     -33.768   6.403   3.658  1.00 20.00     0.008 C 
BRANCH   6   7
HETATM    7  C9  UNL     1     -34.121   6.072   5.134  1.00 20.00    -0.051 C 
HETATM    8  C2  UNL     1     -35.486   5.371   5.236  1.00 20.00     0.014 C 
HETATM    9  C3  UNL     1     -33.046   5.182   5.778  1.00 20.00     0.014 C 
HETATM   10  C4  UNL     1     -34.193   7.397   5.918  1.00 20.00     0.014 C 
ENDBRANCH   6   7
ENDBRANCH   1   6
TORSDOF 4
