REMARK  2 active torsions:
REMARK  status: ('A' for Active; 'I' for Inactive)
REMARK    1  A    between atoms: C2_2  and  C8_8 
REMARK    2  A    between atoms: C6_6  and  C8_8 
ROOT
HETATM    1  C3  UNL     1     -33.849   6.157   6.225  1.00 20.00     0.002 C 
HETATM    2  C4  UNL     1     -33.013   6.690   5.058  1.00 20.00     0.006 C 
HETATM    3  C5  UNL     1     -35.158   5.648   5.617  1.00 20.00     0.020 C 
HETATM    4  C6  UNL     1     -33.917   6.589   3.826  1.00 20.00     0.007 C 
HETATM    5  C7  UNL     1     -34.844   5.410   4.142  1.00 20.00     0.086 C 
HETATM    6 CL9  UNL     1     -34.061   3.817   3.932  1.00 20.00    -0.125 Cl
ENDROOT
BRANCH   4   7
HETATM    7  C8  UNL     1     -33.148   6.508   2.516  1.00 20.00     0.032 C 
BRANCH   7   8
HETATM    8  C2  UNL     1     -32.661   7.858   2.082  1.00 20.00    -0.036 C 
HETATM    9  C1  UNL     1     -32.973   8.424   0.911  1.00 20.00     0.007 C 
ENDBRANCH   7   8
ENDBRANCH   4   7
TORSDOF 2
