REMARK  1 active torsions:
REMARK  status: ('A' for Active; 'I' for Inactive)
REMARK    1  A    between atoms: C6_6  and  C8_8 
ROOT
HETATM    1  C1  UNL     1     -32.081   7.700   1.483  1.00 20.00     0.012 C 
HETATM    2  C2  UNL     1     -32.599   6.803   2.091  1.00 20.00    -0.117 C 
HETATM    3  C8  UNL     1     -33.229   5.703   2.831  1.00 20.00     0.099 C 
ENDROOT
BRANCH   3   4
HETATM    4  C6  UNL     1     -34.414   6.200   3.661  1.00 20.00     0.015 C 
HETATM    5  C4  UNL     1     -33.943   6.824   4.981  1.00 20.00     0.007 C 
HETATM    6  C3  UNL     1     -34.005   5.712   6.031  1.00 20.00     0.002 C 
HETATM    7  C5  UNL     1     -34.625   4.497   5.343  1.00 20.00     0.020 C 
HETATM    8  C7  UNL     1     -35.323   5.048   4.104  1.00 20.00     0.087 C 
HETATM    9 CL9  UNL     1     -36.949   5.663   4.538  1.00 20.00    -0.125 Cl
ENDBRANCH   3   4
TORSDOF 1
