REMARK  1 active torsions:
REMARK  status: ('A' for Active; 'I' for Inactive)
REMARK    1  A    between atoms: C6_6  and  C8_8 
ROOT
HETATM    1  C1  UNL     1     -32.329   7.545   0.680  1.00 20.00     0.012 C 
HETATM    2  C2  UNL     1     -32.670   7.708   1.820  1.00 20.00    -0.117 C 
HETATM    3  C8  UNL     1     -33.087   7.915   3.211  1.00 20.00     0.098 C 
ENDROOT
BRANCH   3   4
HETATM    4  C6  UNL     1     -33.156   6.595   3.967  1.00 20.00     0.011 C 
HETATM    5  C4  UNL     1     -33.566   6.780   5.429  1.00 20.00     0.007 C 
HETATM    6  C3  UNL     1     -34.082   5.403   5.812  1.00 20.00     0.002 C 
HETATM    7  C5  UNL     1     -34.905   4.986   4.599  1.00 20.00     0.016 C 
HETATM    8  C7  UNL     1     -34.211   5.634   3.399  1.00 20.00     0.062 C 
HETATM    9 BR9  UNL     1     -33.352   4.272   2.295  1.00 20.00    -0.091 Br
ENDBRANCH   3   4
TORSDOF 1
