REMARK  2 active torsions:
REMARK  status: ('A' for Active; 'I' for Inactive)
REMARK    1  A    between atoms: C8_8  and  C9_9 
REMARK    2  A    between atoms: C9_9  and  N11_11 
ROOT
HETATM    1  C1  UNL     1     -33.706   6.447   5.004  1.00 20.00     0.071 C 
HETATM    2  C4  UNL     1     -34.071   4.296   3.741  1.00 20.00     0.028 A 
HETATM    3  C5  UNL     1     -35.082   5.285   3.240  1.00 20.00     0.028 A 
HETATM    4  C8  UNL     1     -33.737   5.771   3.733  1.00 20.00     0.075 A 
HETATM    5  N10 UNL     1     -33.681   6.992   6.028  1.00 20.00    -0.196 NA
ENDROOT
BRANCH   4   6
HETATM    6  C9  UNL     1     -32.756   6.263   2.724  1.00 20.00     0.296 C 
BRANCH   6   7
HETATM    7  N11 UNL     1     -33.240   7.481   2.065  1.00 20.00     0.090 N 
HETATM    8  C6  UNL     1     -33.038   8.651   2.922  1.00 20.00     0.272 C 
HETATM    9  C2  UNL     1     -33.147   9.811   1.944  1.00 20.00     0.032 C 
HETATM   10  C3  UNL     1     -32.773   9.226   0.586  1.00 20.00     0.032 C 
HETATM   11  C7  UNL     1     -32.464   7.761   0.856  1.00 20.00     0.272 C 
ENDBRANCH   6   7
ENDBRANCH   4   6
TORSDOF 2
