REMARK  2 active torsions:
REMARK  status: ('A' for Active; 'I' for Inactive)
REMARK    1  A    between atoms: C4_4  and  C8_8 
REMARK    2  A    between atoms: C8_8  and  C9_9 
ROOT
HETATM    1  C1  UNL     1     -33.894   4.507   3.154  1.00 20.00     0.002 C 
HETATM    2  C2  UNL     1     -32.807   5.568   2.968  1.00 20.00     0.006 C 
HETATM    3  C3  UNL     1     -35.075   5.205   3.828  1.00 20.00     0.020 C 
HETATM    4  C4  UNL     1     -33.418   6.898   3.424  1.00 20.00     0.004 C 
HETATM    5  C5  UNL     1     -34.496   6.480   4.431  1.00 20.00     0.086 C 
HETATM    6 CL10 UNL     1     -33.763   6.127   6.026  1.00 20.00    -0.125 Cl
ENDROOT
BRANCH   4   7
HETATM    7  C8  UNL     1     -34.011   7.669   2.243  1.00 20.00     0.010 C 
BRANCH   7   8
HETATM    8  C9  UNL     1     -32.972   8.493   1.461  1.00 20.00    -0.022 C 
HETATM    9  C6  UNL     1     -31.860   7.622   0.873  1.00 20.00     0.009 C 
HETATM   10  C7  UNL     1     -33.663   9.274   0.341  1.00 20.00     0.009 C 
ENDBRANCH   7   8
ENDBRANCH   4   7
TORSDOF 2
