REMARK  0 active torsions:
REMARK  status: ('A' for Active; 'I' for Inactive)
ROOT
HETATM    1  C1  UNL     1     -34.072   6.036   5.601  1.00 20.00     0.019 A 
HETATM    2  C2  UNL     1     -34.443   4.775   5.125  1.00 20.00    -0.033 A 
HETATM    3  C3  UNL     1     -33.545   6.983   4.732  1.00 20.00    -0.021 A 
HETATM    4  C4  UNL     1     -34.285   4.523   3.759  1.00 20.00     0.042 A 
HETATM    5  C5  UNL     1     -33.413   6.635   3.401  1.00 20.00     0.132 A 
HETATM    6  C6  UNL     1     -35.053   3.768   6.062  1.00 20.00     0.040 C 
HETATM    7  C7  UNL     1     -34.632   3.181   3.170  1.00 20.00     0.060 C 
HETATM    8  C8  UNL     1     -35.075   2.351   5.490  1.00 20.00     0.005 C 
HETATM    9  C9  UNL     1     -35.574   2.362   4.050  1.00 20.00     0.006 C 
HETATM   10  C10 UNL     1     -33.149   8.321   5.255  1.00 20.00     0.051 C 
HETATM   11  N11 UNL     1     -33.766   5.433   2.895  1.00 20.00    -0.240 NA
HETATM   12 CL12 UNL     1     -32.773   7.716   2.226  1.00 20.00    -0.062 Cl
ENDROOT
TORSDOF 0
