REMARK  4 active torsions:
REMARK  status: ('A' for Active; 'I' for Inactive)
REMARK    1  A    between atoms: C2_2  and  C6_6 
REMARK    2  A    between atoms: C6_6  and  C7_7 
REMARK    3  A    between atoms: C7_7  and  C8_8 
REMARK    4  A    between atoms: C8_8  and  O9_9 
ROOT
HETATM    1  C4  UNL     1     -32.582   4.620   3.116  1.00 20.00     0.012 C 
HETATM    2  C7  UNL     1     -33.196   5.999   2.832  1.00 20.00     0.014 C 
ENDROOT
BRANCH   2   3
HETATM    3  C6  UNL     1     -32.088   6.917   2.256  1.00 20.00     0.039 C 
BRANCH   3   4
HETATM    4  C2  UNL     1     -32.587   8.068   1.412  1.00 20.00    -0.093 C 
HETATM    5  C1  UNL     1     -32.198   8.223   0.137  1.00 20.00     0.014 C 
HETATM    6  C3  UNL     1     -33.567   9.010   2.050  1.00 20.00     0.042 C 
ENDBRANCH   3   4
ENDBRANCH   2   3
BRANCH   2   7
HETATM    7  C8  UNL     1     -33.874   6.610   4.081  1.00 20.00     0.118 C 
HETATM    8  C5  UNL     1     -35.004   5.749   4.637  1.00 20.00     0.040 C 
BRANCH   7   9
HETATM    9  O9  UNL     1     -32.906   6.817   5.107  1.00 20.00    -0.396 OA
HETATM   10  H25 UNL     1     -33.365   7.267   5.833  1.00 20.00     0.210 HD
ENDBRANCH   7   9
ENDBRANCH   2   7
TORSDOF 4
