REMARK  3 active torsions:
REMARK  status: ('A' for Active; 'I' for Inactive)
REMARK    1  A    between atoms: C4_4  and  C10_10 
REMARK    2  A    between atoms: C5_5  and  C11_11 
REMARK    3  A    between atoms: C6_6  and  C12_12 
ROOT
HETATM    1  C7  UNL     1     -33.985   4.539   3.112  1.00 20.00     0.009 C 
HETATM    2  C8  UNL     1     -32.964   4.963   2.055  1.00 20.00     0.010 C 
HETATM    3  C9  UNL     1     -34.176   6.946   3.882  1.00 20.00     0.017 C 
HETATM    4  C10 UNL     1     -33.988   5.484   4.321  1.00 20.00     0.008 C 
HETATM    5  C11 UNL     1     -33.179   6.423   1.625  1.00 20.00     0.015 C 
HETATM    6  C12 UNL     1     -33.136   7.391   2.834  1.00 20.00     0.015 C 
ENDROOT
BRANCH   4   7
HETATM    7  C4  UNL     1     -35.051   5.093   5.301  1.00 20.00    -0.032 C 
HETATM    8  C1  UNL     1     -35.261   5.716   6.466  1.00 20.00     0.007 C 
ENDBRANCH   4   7
BRANCH   6   9
HETATM    9  C6  UNL     1     -31.776   7.522   3.468  1.00 20.00    -0.031 C 
HETATM   10  C3  UNL     1     -31.577   7.791   4.763  1.00 20.00     0.007 C 
ENDBRANCH   6   9
BRANCH   5  11
HETATM   11  C5  UNL     1     -32.231   6.814   0.530  1.00 20.00    -0.031 C 
HETATM   12  C2  UNL     1     -32.533   7.672  -0.451  1.00 20.00     0.007 C 
ENDBRANCH   5  11
TORSDOF 3
