REMARK  4 active torsions:
REMARK  status: ('A' for Active; 'I' for Inactive)
REMARK    1  A    between atoms: C6_6  and  C7_7 
REMARK    2  A    between atoms: C7_7  and  C9_9 
REMARK    3  A    between atoms: C8_8  and  C9_9 
REMARK    4  A    between atoms: C8_8  and  N11_11 
ROOT
HETATM    1  C1  UNL     1     -34.660   5.337   3.565  1.00 20.00     0.095 C 
HETATM    2  C8  UNL     1     -34.013   6.566   4.059  1.00 20.00     0.331 C 
HETATM    3  N10 UNL     1     -35.174   4.372   3.176  1.00 20.00    -0.195 NA
ENDROOT
BRANCH   2   4
HETATM    4  C9  UNL     1     -33.004   7.161   3.036  1.00 20.00     0.029 C 
HETATM    5  C3  UNL     1     -31.831   6.215   2.732  1.00 20.00     0.013 C 
BRANCH   4   6
HETATM    6  C7  UNL     1     -33.731   7.601   1.742  1.00 20.00     0.007 C 
BRANCH   6   7
HETATM    7  C6  UNL     1     -32.842   8.398   0.783  1.00 20.00    -0.004 C 
HETATM    8  C2  UNL     1     -33.624   8.871  -0.433  1.00 20.00     0.005 C 
ENDBRANCH   6   7
ENDBRANCH   4   6
ENDBRANCH   2   4
BRANCH   2   9
HETATM    9  N11 UNL     1     -33.357   6.294   5.340  1.00 20.00     0.098 N 
HETATM   10  C4  UNL     1     -34.191   5.420   6.163  1.00 20.00     0.311 C 
HETATM   11  C5  UNL     1     -33.075   7.545   6.043  1.00 20.00     0.311 C 
ENDBRANCH   2   9
TORSDOF 4
