REMARK  3 active torsions:
REMARK  status: ('A' for Active; 'I' for Inactive)
REMARK    1  A    between atoms: C1_1  and  C7_7 
REMARK    2  A    between atoms: C5_5  and  N8_8 
REMARK    3  A    between atoms: C7_7  and  N8_8 
ROOT
HETATM    1  C2  UNL     1     -34.402   4.676   4.244  1.00 20.00     0.047 C 
HETATM    2  C3  UNL     1     -34.594   4.496   5.742  1.00 20.00     0.076 C 
HETATM    3  C4  UNL     1     -34.009   6.986   4.916  1.00 20.00     0.109 C 
HETATM    4  C5  UNL     1     -33.438   5.849   4.077  1.00 20.00     0.233 C 
HETATM    5  S10 UNL     1     -34.635   6.180   6.419  1.00 20.00    -0.167 SA
ENDROOT
BRANCH   4   6
HETATM    6  N8  UNL     1     -33.291   6.244   2.682  1.00 20.00     0.096 N 
HETATM    7  C6  UNL     1     -32.775   5.131   1.881  1.00 20.00     0.310 C 
BRANCH   6   8
HETATM    8  C7  UNL     1     -32.408   7.406   2.564  1.00 20.00     0.341 C 
BRANCH   8   9
HETATM    9  C1  UNL     1     -32.292   7.769   1.111  1.00 20.00     0.261 C 
HETATM   10  O9  UNL     1     -33.049   8.568   0.566  1.00 20.00    -0.305 OA
ENDBRANCH   8   9
ENDBRANCH   6   8
ENDBRANCH   4   6
TORSDOF 3
