REMARK  3 active torsions:
REMARK  status: ('A' for Active; 'I' for Inactive)
REMARK    1  A    between atoms: C1_1  and  C3_3 
REMARK    2  A    between atoms: C1_1  and  C4_4 
REMARK    3  A    between atoms: C3_3  and  C5_5 
ROOT
HETATM    1  C1  UNL     1     -33.895   5.728   3.298  1.00 20.00     0.140 C 
HETATM    2  O6  UNL     1     -33.764   4.874   2.423  1.00 20.00    -0.297 OA
ENDROOT
BRANCH   1   3
HETATM    3  C3  UNL     1     -32.836   6.793   3.549  1.00 20.00     0.079 C 
BRANCH   3   4
HETATM    4  C5  UNL     1     -32.081   7.225   2.293  1.00 20.00     0.003 C 
HETATM    5  C2  UNL     1     -33.001   7.809   1.230  1.00 20.00     0.005 C 
ENDBRANCH   3   4
ENDBRANCH   1   3
BRANCH   1   6
HETATM    6  C4  UNL     1     -35.089   5.779   4.227  1.00 20.00     0.192 C 
HETATM    7 CL7  UNL     1     -34.806   4.795   5.670  1.00 20.00    -0.123 Cl
ENDBRANCH   1   6
TORSDOF 3
