REMARK  0 active torsions:
REMARK  status: ('A' for Active; 'I' for Inactive)
ROOT
HETATM    1  C1  UNL     1     -33.073   7.256   3.811  1.00 20.00     0.055 A 
HETATM    2  C2  UNL     1     -33.648   6.441   4.755  1.00 20.00    -0.029 A 
HETATM    3  C3  UNL     1     -34.128   5.201   4.370  1.00 20.00     0.063 A 
HETATM    4  C4  UNL     1     -33.035   6.759   2.521  1.00 20.00     0.148 A 
HETATM    5  C5  UNL     1     -33.815   6.655   6.222  1.00 20.00     0.041 C 
HETATM    6  C6  UNL     1     -34.665   4.440   5.545  1.00 20.00     0.062 C 
HETATM    7  C7  UNL     1     -34.860   5.578   6.559  1.00 20.00     0.011 C 
HETATM    8  N8  UNL     1     -34.072   4.734   3.113  1.00 20.00    -0.153 NA
HETATM    9  N9  UNL     1     -33.518   5.538   2.167  1.00 20.00    -0.138 NA
HETATM   10 CL10 UNL     1     -32.351   7.664   1.236  1.00 20.00    -0.060 Cl
ENDROOT
TORSDOF 0
