REMARK  4 active torsions:
REMARK  status: ('A' for Active; 'I' for Inactive)
REMARK    1  A    between atoms: C2_2  and  C11_11 
REMARK    2  A    between atoms: C9_9  and  C10_10 
REMARK    3  A    between atoms: C10_10  and  C11_11 
REMARK    4  A    between atoms: C11_11  and  O12_12 
ROOT
HETATM    1  C11 UNL     1     -32.863   7.267   2.995  1.00 20.00     0.147 C 
ENDROOT
BRANCH   1   2
HETATM    2  C2  UNL     1     -33.631   6.505   4.035  1.00 20.00    -0.055 C 
HETATM    3  C1  UNL     1     -33.969   7.056   5.214  1.00 20.00    -0.021 C 
HETATM    4  C3  UNL     1     -34.703   6.319   6.295  1.00 20.00     0.027 C 
HETATM    5  C5  UNL     1     -34.744   4.807   6.075  1.00 20.00     0.004 C 
HETATM    6  C6  UNL     1     -35.046   4.474   4.618  1.00 20.00     0.005 C 
HETATM    7  C4  UNL     1     -34.000   5.086   3.682  1.00 20.00     0.036 C 
ENDBRANCH   1   2
BRANCH   1   8
HETATM    8  C10 UNL     1     -33.686   7.481   1.733  1.00 20.00     0.041 C 
BRANCH   8   9
HETATM    9  C9  UNL     1     -32.918   8.221   0.649  1.00 20.00    -0.012 A 
HETATM   10  C7  UNL     1     -33.655   8.908  -0.467  1.00 20.00     0.005 A 
HETATM   11  C8  UNL     1     -32.957   9.723   0.586  1.00 20.00     0.005 A 
ENDBRANCH   8   9
ENDBRANCH   1   8
BRANCH   1  12
HETATM   12  O12 UNL     1     -32.586   8.527   3.585  1.00 20.00    -0.391 OA
HETATM   13  H30 UNL     1     -32.087   9.042   2.930  1.00 20.00     0.210 HD
ENDBRANCH   1  12
TORSDOF 4
