REMARK  2 active torsions:
REMARK  status: ('A' for Active; 'I' for Inactive)
REMARK    1  A    between atoms: C2_2  and  C3_3 
REMARK    2  A    between atoms: C3_3  and  C8_8 
ROOT
HETATM    1  C3  UNL     1     -32.794   6.836   3.111  1.00 20.00     0.159 C 
HETATM    2  O11 UNL     1     -31.786   7.383   3.582  1.00 20.00    -0.292 OA
ENDROOT
BRANCH   1   3
HETATM    3  C2  UNL     1     -33.677   6.075   3.937  1.00 20.00    -0.016 C 
HETATM    4  C1  UNL     1     -34.410   5.023   3.553  1.00 20.00    -0.016 C 
HETATM    5  C4  UNL     1     -35.234   4.486   4.676  1.00 20.00     0.028 C 
HETATM    6  C6  UNL     1     -34.626   5.169   5.900  1.00 20.00     0.009 C 
HETATM    7  C5  UNL     1     -33.895   6.408   5.378  1.00 20.00     0.042 C 
ENDBRANCH   1   3
BRANCH   1   8
HETATM    8  C8  UNL     1     -33.109   6.956   1.634  1.00 20.00     0.064 A 
HETATM    9  C7  UNL     1     -31.969   6.988   0.686  1.00 20.00     0.018 A 
HETATM   10  C9  UNL     1     -32.759   8.241   0.958  1.00 20.00    -0.006 A 
HETATM   11  C10 UNL     1     -33.683   8.785  -0.076  1.00 20.00     0.011 C 
ENDBRANCH   1   8
TORSDOF 2
