REMARK  2 active torsions:
REMARK  status: ('A' for Active; 'I' for Inactive)
REMARK    1  A    between atoms: C2_2  and  C3_3 
REMARK    2  A    between atoms: C3_3  and  C9_9 
ROOT
HETATM    1  C1  UNL     1     -34.182   5.311   3.626  1.00 20.00    -0.016 C 
HETATM    2  C2  UNL     1     -33.573   6.469   3.904  1.00 20.00    -0.016 C 
HETATM    3  C4  UNL     1     -34.889   4.760   4.819  1.00 20.00     0.028 C 
HETATM    4  C5  UNL     1     -33.776   6.876   5.329  1.00 20.00     0.042 C 
HETATM    5  C6  UNL     1     -34.325   5.599   5.965  1.00 20.00     0.009 C 
ENDROOT
BRANCH   2   6
HETATM    6  C3  UNL     1     -32.824   7.272   2.989  1.00 20.00     0.159 C 
HETATM    7  O10 UNL     1     -31.625   7.520   3.186  1.00 20.00    -0.292 OA
BRANCH   6   8
HETATM    8  C9  UNL     1     -33.524   7.810   1.759  1.00 20.00     0.060 A 
HETATM    9  C7  UNL     1     -33.125   9.149   1.267  1.00 20.00     0.013 A 
HETATM   10  C8  UNL     1     -32.736   7.916   0.508  1.00 20.00     0.013 A 
ENDBRANCH   6   8
ENDBRANCH   2   6
TORSDOF 2
