REMARK  2 active torsions:
REMARK  status: ('A' for Active; 'I' for Inactive)
REMARK    1  A    between atoms: C2_2  and  C3_3 
REMARK    2  A    between atoms: C3_3  and  C9_9 
ROOT
HETATM    1  C1  UNL     1     -33.791   6.708   4.927  1.00 20.00    -0.016 C 
HETATM    2  C2  UNL     1     -33.501   6.580   3.624  1.00 20.00    -0.016 C 
HETATM    3  C4  UNL     1     -34.450   5.615   5.718  1.00 20.00     0.028 C 
HETATM    4  C5  UNL     1     -33.769   5.339   2.827  1.00 20.00     0.042 C 
HETATM    5  C6  UNL     1     -35.028   4.498   4.846  1.00 20.00     0.004 C 
HETATM    6  C7  UNL     1     -34.076   4.127   3.712  1.00 20.00     0.005 C 
ENDROOT
BRANCH   2   7
HETATM    7  C3  UNL     1     -32.867   7.717   2.952  1.00 20.00     0.159 C 
HETATM    8  O12 UNL     1     -32.606   8.749   3.575  1.00 20.00    -0.292 OA
BRANCH   7   9
HETATM    9  C9  UNL     1     -32.538   7.582   1.487  1.00 20.00     0.064 A 
HETATM   10  C8  UNL     1     -31.288   8.217   0.989  1.00 20.00     0.018 A 
HETATM   11  C10 UNL     1     -32.628   8.774   0.599  1.00 20.00    -0.006 A 
HETATM   12  C11 UNL     1     -33.041  10.125   1.074  1.00 20.00     0.011 C 
ENDBRANCH   7   9
ENDBRANCH   2   7
TORSDOF 2
