REMARK  3 active torsions:
REMARK  status: ('A' for Active; 'I' for Inactive)
REMARK    1  A    between atoms: C6_6  and  N10_10 
REMARK    2  A    between atoms: C7_7  and  C8_8 
REMARK    3  A    between atoms: C8_8  and  N10_10 
ROOT
HETATM    1  C1  UNL     1     -32.994   8.660   1.281  1.00 20.00     0.094 C 
HETATM    2  C2  UNL     1     -32.196   6.977  -0.336  1.00 20.00     0.059 C 
HETATM    3  C6  UNL     1     -32.196   7.438   1.116  1.00 20.00     0.322 C 
HETATM    4  N9  UNL     1     -33.622   9.627   1.411  1.00 20.00    -0.195 NA
ENDROOT
BRANCH   3   5
HETATM    5  N10 UNL     1     -32.708   6.388   1.990  1.00 20.00     0.105 N 
HETATM    6  H26 UNL     1     -31.980   5.684   2.123  1.00 20.00     0.318 HD
BRANCH   5   7
HETATM    7  C8  UNL     1     -33.106   6.924   3.276  1.00 20.00     0.221 C 
HETATM    8  C5  UNL     1     -31.891   7.562   3.946  1.00 20.00     0.043 C 
BRANCH   7   9
HETATM    9  C7  UNL     1     -33.776   5.836   4.146  1.00 20.00     0.010 C 
HETATM   10  C3  UNL     1     -34.264   6.340   5.508  1.00 20.00     0.011 C 
HETATM   11  C4  UNL     1     -34.933   5.161   3.400  1.00 20.00     0.011 C 
ENDBRANCH   7   9
ENDBRANCH   5   7
ENDBRANCH   3   5
TORSDOF 3
