REMARK  3 active torsions:
REMARK  status: ('A' for Active; 'I' for Inactive)
REMARK    1  A    between atoms: C3_3  and  C5_5 
REMARK    2  A    between atoms: C5_5  and  C6_6 
REMARK    3  A    between atoms: C6_6  and  S9_9 
ROOT
HETATM    1  C1  UNL     1     -34.512   6.557   6.055  1.00 20.00     0.281 C 
HETATM    2  C2  UNL     1     -34.941   5.339   5.250  1.00 20.00     0.106 C 
HETATM    3  C3  UNL     1     -33.462   7.145   4.031  1.00 20.00     0.282 C 
HETATM    4  N7  UNL     1     -33.256   7.036   5.477  1.00 20.00     0.098 N 
HETATM    5  S8  UNL     1     -34.590   5.802   3.538  1.00 20.00    -0.132 SA
HETATM    6  H22 UNL     1     -33.001   7.941   5.870  1.00 20.00     0.317 HD
ENDROOT
BRANCH   3   7
HETATM    7  C5  UNL     1     -32.134   7.038   3.298  1.00 20.00     0.056 C 
BRANCH   7   8
HETATM    8  C6  UNL     1     -32.332   7.109   1.787  1.00 20.00     0.076 C 
BRANCH   8   9
HETATM    9  S9  UNL     1     -33.113   8.680   1.319  1.00 20.00    -0.173 SA
HETATM   10  C4  UNL     1     -33.227   8.396  -0.462  1.00 20.00     0.089 C 
ENDBRANCH   8   9
ENDBRANCH   7   8
ENDBRANCH   3   7
TORSDOF 3
