REMARK  5 active torsions:
REMARK  status: ('A' for Active; 'I' for Inactive)
REMARK    1  A    between atoms: C5_5  and  N10_10 
REMARK    2  A    between atoms: C6_6  and  C7_7 
REMARK    3  A    between atoms: C6_6  and  C8_8 
REMARK    4  A    between atoms: C7_7  and  C9_9 
REMARK    5  A    between atoms: C8_8  and  N10_10 
ROOT
HETATM    1  C1  UNL     1     -34.158   5.362   6.225  1.00 20.00     0.013 C 
HETATM    2  C2  UNL     1     -34.411   4.902   5.146  1.00 20.00    -0.087 C 
HETATM    3  C5  UNL     1     -34.723   4.335   3.831  1.00 20.00     0.362 C 
ENDROOT
BRANCH   3   4
HETATM    4  N10 UNL     1     -34.371   5.277   2.766  1.00 20.00     0.094 N 
HETATM    5  H27 UNL     1     -34.891   5.015   1.921  1.00 20.00     0.317 HD
BRANCH   4   6
HETATM    6  C8  UNL     1     -32.959   5.276   2.502  1.00 20.00     0.270 C 
BRANCH   6   7
HETATM    7  C6  UNL     1     -32.564   6.306   1.448  1.00 20.00     0.030 C 
BRANCH   7   8
HETATM    8  C7  UNL     1     -32.950   7.734   1.850  1.00 20.00     0.005 C 
BRANCH   8   9
HETATM    9  C9  UNL     1     -32.621   8.783   0.771  1.00 20.00    -0.023 C 
HETATM   10  C3  UNL     1     -33.376   8.454  -0.519  1.00 20.00     0.009 C 
HETATM   11  C4  UNL     1     -32.959  10.206   1.217  1.00 20.00     0.009 C 
ENDBRANCH   8   9
ENDBRANCH   7   8
ENDBRANCH   6   7
ENDBRANCH   4   6
ENDBRANCH   3   4
TORSDOF 5
