REMARK  1 active torsions:
REMARK  status: ('A' for Active; 'I' for Inactive)
REMARK    1  A    between atoms: C9_9  and  O11_11 
ROOT
HETATM    1  C1  UNL     1     -33.992   6.571   5.937  1.00 20.00     0.052 A 
HETATM    2  C2  UNL     1     -33.061   8.015   4.213  1.00 20.00     0.049 A 
HETATM    3  C3  UNL     1     -34.057   5.552   5.001  1.00 20.00    -0.020 A 
HETATM    4  C4  UNL     1     -33.622   5.755   3.685  1.00 20.00    -0.043 A 
HETATM    5  C5  UNL     1     -33.116   6.979   3.279  1.00 20.00    -0.052 A 
HETATM    6  C6  UNL     1     -33.495   7.813   5.533  1.00 20.00     0.117 A 
HETATM    7  C7  UNL     1     -33.746   4.499   2.880  1.00 20.00     0.042 C 
HETATM    8  C8  UNL     1     -34.736   3.698   3.737  1.00 20.00     0.041 C 
HETATM    9  C9  UNL     1     -34.506   4.135   5.193  1.00 20.00     0.152 C 
HETATM   10  C10 UNL     1     -32.637   7.200   1.887  1.00 20.00     0.049 C 
HETATM   11  F12 UNL     1     -33.425   8.819   6.415  1.00 20.00    -0.206 F 
ENDROOT
BRANCH   9  12
HETATM   12  O11 UNL     1     -35.702   4.053   5.942  1.00 20.00    -0.391 OA
HETATM   13  H23 UNL     1     -35.927   3.110   6.022  1.00 20.00     0.210 HD
ENDBRANCH   9  12
TORSDOF 1
