REMARK  3 active torsions:
REMARK  status: ('A' for Active; 'I' for Inactive)
REMARK    1  A    between atoms: C3_3  and  C4_4 
REMARK    2  A    between atoms: C3_3  and  C5_5 
REMARK    3  A    between atoms: C5_5  and  C6_6 
ROOT
HETATM    1  C1  UNL     1     -33.122   8.775   0.625  1.00 20.00     0.012 C 
HETATM    2  C2  UNL     1     -32.677   7.814   1.190  1.00 20.00    -0.110 C 
HETATM    3  C4  UNL     1     -32.125   6.641   1.877  1.00 20.00     0.171 C 
ENDROOT
BRANCH   3   4
HETATM    4  C3  UNL     1     -33.185   5.847   2.621  1.00 20.00     0.146 C 
HETATM    5  O7  UNL     1     -33.793   4.911   2.104  1.00 20.00    -0.297 OA
BRANCH   4   6
HETATM    6  C5  UNL     1     -33.446   6.289   4.052  1.00 20.00     0.196 C 
BRANCH   6   7
HETATM    7  C6  UNL     1     -34.531   5.487   4.733  1.00 20.00     0.394 C 
HETATM    8  F8  UNL     1     -34.724   5.934   5.994  1.00 20.00    -0.171 F 
HETATM    9  F9  UNL     1     -35.708   5.592   4.080  1.00 20.00    -0.171 F 
HETATM   10  F10 UNL     1     -34.206   4.180   4.810  1.00 20.00    -0.171 F 
ENDBRANCH   6   7
ENDBRANCH   4   6
ENDBRANCH   3   4
TORSDOF 3
