REMARK  5 active torsions:
REMARK  status: ('A' for Active; 'I' for Inactive)
REMARK    1  A    between atoms: C1_1  and  C9_9 
REMARK    2  A    between atoms: C6_6  and  C7_7 
REMARK    3  A    between atoms: C7_7  and  C10_10 
REMARK    4  A    between atoms: C8_8  and  C9_9 
REMARK    5  A    between atoms: C8_8  and  C10_10 
ROOT
HETATM    1  C8  UNL     1     -33.425   5.539   2.644  1.00 20.00     0.016 C 
ENDROOT
BRANCH   1   2
HETATM    2  C9  UNL     1     -33.458   4.822   4.006  1.00 20.00     0.051 C 
HETATM    3  C4  UNL     1     -33.809   3.342   3.889  1.00 20.00     0.018 C 
BRANCH   2   4
HETATM    4  C1  UNL     1     -34.473   5.496   4.928  1.00 20.00     0.126 C 
HETATM    5  C2  UNL     1     -34.597   4.939   6.324  1.00 20.00     0.091 C 
HETATM    6  O11 UNL     1     -35.142   6.466   4.574  1.00 20.00    -0.298 OA
ENDBRANCH   2   4
ENDBRANCH   1   2
BRANCH   1   7
HETATM    7  C10 UNL     1     -33.126   7.052   2.691  1.00 20.00    -0.018 C 
HETATM    8  C5  UNL     1     -31.980   7.319   3.676  1.00 20.00     0.010 C 
BRANCH   7   9
HETATM    9  C7  UNL     1     -32.841   7.689   1.315  1.00 20.00     0.004 C 
BRANCH   9  10
HETATM   10  C6  UNL     1     -32.710   9.215   1.318  1.00 20.00    -0.004 C 
HETATM   11  C3  UNL     1     -32.482   9.750  -0.089  1.00 20.00     0.005 C 
ENDBRANCH   9  10
ENDBRANCH   7   9
ENDBRANCH   1   7
TORSDOF 5
