REMARK  3 active torsions:
REMARK  status: ('A' for Active; 'I' for Inactive)
REMARK    1  A    between atoms: C2_2  and  C11_11 
REMARK    2  A    between atoms: C7_7  and  C11_11 
REMARK    3  A    between atoms: C8_8  and  C12_12 
ROOT
HETATM    1  C1  UNL     1     -33.060   8.066   1.270  1.00 20.00    -0.111 C 
HETATM    2  C2  UNL     1     -33.164   7.047   1.897  1.00 20.00    -0.106 C 
HETATM    3  C9  UNL     1     -32.934   9.307   0.507  1.00 20.00     0.112 C 
ENDROOT
BRANCH   2   4
HETATM    4  C11 UNL     1     -33.282   5.800   2.659  1.00 20.00     0.106 C 
BRANCH   4   5
HETATM    5  C7  UNL     1     -34.639   5.705   3.346  1.00 20.00     0.067 C 
HETATM    6  C3  UNL     1     -34.799   4.341   3.994  1.00 20.00     0.132 C 
HETATM    7  C4  UNL     1     -34.213   4.148   5.374  1.00 20.00     0.079 C 
HETATM    8  O13 UNL     1     -35.298   3.398   3.378  1.00 20.00    -0.298 OA
HETATM    9  C5  UNL     1     -34.652   5.268   6.305  1.00 20.00     0.012 C 
HETATM   10  C8  UNL     1     -34.335   6.664   5.756  1.00 20.00    -0.014 C 
HETATM   11  C6  UNL     1     -34.917   6.837   4.344  1.00 20.00     0.017 C 
BRANCH  10  12
HETATM   12  C12 UNL     1     -32.846   6.995   5.841  1.00 20.00     0.000 C 
HETATM   13  C10 UNL     1     -32.563   8.388   5.384  1.00 20.00     0.005 C 
ENDBRANCH  10  12
ENDBRANCH   4   5
ENDBRANCH   2   4
TORSDOF 3
