REMARK  4 active torsions:
REMARK  status: ('A' for Active; 'I' for Inactive)
REMARK    1  A    between atoms: C2_2  and  C7_7 
REMARK    2  A    between atoms: C5_5  and  C8_8 
REMARK    3  A    between atoms: C7_7  and  C8_8 
REMARK    4  A    between atoms: C8_8  and  O9_9 
ROOT
HETATM    1  C1  UNL     1     -32.930   8.067   1.258  1.00 20.00    -0.111 C 
HETATM    2  C2  UNL     1     -32.912   7.154   2.038  1.00 20.00    -0.104 C 
HETATM    3  C6  UNL     1     -32.952   9.180   0.310  1.00 20.00     0.112 C 
ENDROOT
BRANCH   2   4
HETATM    4  C7  UNL     1     -32.890   6.033   2.991  1.00 20.00     0.126 C 
BRANCH   4   5
HETATM    5  C8  UNL     1     -33.575   6.407   4.307  1.00 20.00     0.133 C 
BRANCH   5   6
HETATM    6  C5  UNL     1     -33.944   5.165   5.108  1.00 20.00     0.015 A 
HETATM    7  C3  UNL     1     -34.951   5.253   6.221  1.00 20.00     0.007 A 
HETATM    8  C4  UNL     1     -35.301   4.536   4.947  1.00 20.00     0.007 A 
ENDBRANCH   5   6
BRANCH   5   9
HETATM    9  O9  UNL     1     -32.676   7.197   5.084  1.00 20.00    -0.394 OA
HETATM   10  H21 UNL     1     -33.148   7.429   5.899  1.00 20.00     0.210 HD
ENDBRANCH   5   9
ENDBRANCH   4   5
ENDBRANCH   2   4
TORSDOF 4
