REMARK  2 active torsions:
REMARK  status: ('A' for Active; 'I' for Inactive)
REMARK    1  A    between atoms: C1_1  and  C5_5 
REMARK    2  A    between atoms: C6_6  and  C7_7 
ROOT
HETATM    1  C4  UNL     1     -31.895   7.250   3.417  1.00 20.00     0.021 A 
HETATM    2  C5  UNL     1     -32.880   6.195   2.986  1.00 20.00     0.091 A 
HETATM    3  C7  UNL     1     -32.968   7.599   2.420  1.00 20.00     0.005 A 
ENDROOT
BRANCH   2   4
HETATM    4  C1  UNL     1     -33.894   5.792   3.940  1.00 20.00     0.177 C 
HETATM    5  O8  UNL     1     -34.320   6.710   4.694  1.00 20.00    -0.648 OA
HETATM    6  O9  UNL     1     -34.215   4.572   3.887  1.00 20.00    -0.648 OA
ENDBRANCH   2   4
BRANCH   3   7
HETATM    7  C6  UNL     1     -32.664   7.909   0.963  1.00 20.00    -0.010 A 
HETATM    8  C2  UNL     1     -33.740   8.197  -0.047  1.00 20.00     0.005 A 
HETATM    9  C3  UNL     1     -32.800   9.289   0.381  1.00 20.00     0.005 A 
ENDBRANCH   3   7
TORSDOF 2
