REMARK  4 active torsions:
REMARK  status: ('A' for Active; 'I' for Inactive)
REMARK    1  A    between atoms: C2_2  and  C6_6 
REMARK    2  A    between atoms: C3_3  and  C6_6 
REMARK    3  A    between atoms: C3_3  and  C7_7 
REMARK    4  A    between atoms: C7_7  and  C8_8 
ROOT
HETATM    1  C1  UNL     1     -32.833   8.433   1.125  1.00 20.00    -0.111 C 
HETATM    2  C2  UNL     1     -32.586   7.588   1.942  1.00 20.00    -0.100 C 
HETATM    3  C4  UNL     1     -33.135   9.461   0.131  1.00 20.00     0.112 C 
ENDROOT
BRANCH   2   4
HETATM    4  C6  UNL     1     -32.276   6.558   2.940  1.00 20.00     0.172 C 
BRANCH   4   5
HETATM    5  C3  UNL     1     -33.513   6.058   3.664  1.00 20.00     0.137 C 
HETATM    6  O9  UNL     1     -34.191   5.120   3.246  1.00 20.00    -0.297 OA
BRANCH   5   7
HETATM    7  C7  UNL     1     -33.861   6.797   4.948  1.00 20.00     0.079 C 
BRANCH   7   8
HETATM    8  C8  UNL     1     -33.901   5.875   6.164  1.00 20.00     0.003 C 
HETATM    9  C5  UNL     1     -34.960   4.796   6.011  1.00 20.00     0.005 C 
ENDBRANCH   7   8
ENDBRANCH   5   7
ENDBRANCH   4   5
ENDBRANCH   2   4
TORSDOF 4
