REMARK  3 active torsions:
REMARK  status: ('A' for Active; 'I' for Inactive)
REMARK    1  A    between atoms: C2_2  and  C9_9 
REMARK    2  A    between atoms: C6_6  and  C9_9 
REMARK    3  A    between atoms: C7_7  and  O10_10 
ROOT
HETATM    1  C1  UNL     1     -32.441   7.500   1.300  1.00 20.00    -0.111 C 
HETATM    2  C2  UNL     1     -32.846   6.522   1.868  1.00 20.00    -0.107 C 
HETATM    3  C8  UNL     1     -31.948   8.691   0.609  1.00 20.00     0.112 C 
ENDROOT
BRANCH   2   4
HETATM    4  C9  UNL     1     -33.339   5.325   2.557  1.00 20.00     0.101 C 
BRANCH   4   5
HETATM    5  C6  UNL     1     -34.165   5.694   3.780  1.00 20.00     0.025 C 
HETATM    6  C4  UNL     1     -35.045   4.551   4.278  1.00 20.00     0.008 C 
HETATM    7  C3  UNL     1     -35.349   4.899   5.736  1.00 20.00     0.003 C 
HETATM    8  C5  UNL     1     -34.326   5.957   6.148  1.00 20.00     0.032 C 
HETATM    9  C7  UNL     1     -33.317   6.012   5.008  1.00 20.00     0.123 C 
BRANCH   9  10
HETATM   10  O10 UNL     1     -32.721   7.291   4.903  1.00 20.00    -0.395 OA
HETATM   11  H24 UNL     1     -32.271   7.468   5.747  1.00 20.00     0.210 HD
ENDBRANCH   9  10
ENDBRANCH   4   5
ENDBRANCH   2   4
TORSDOF 3
