REMARK  4 active torsions:
REMARK  status: ('A' for Active; 'I' for Inactive)
REMARK    1  A    between atoms: C2_2  and  C7_7 
REMARK    2  A    between atoms: C7_7  and  N11_11 
REMARK    3  A    between atoms: C8_8  and  C9_9 
REMARK    4  A    between atoms: C8_8  and  N11_11 
ROOT
HETATM    1  C1  UNL     1     -32.754   7.614   1.273  1.00 20.00    -0.109 C 
HETATM    2  C2  UNL     1     -32.747   6.478   1.662  1.00 20.00    -0.077 C 
HETATM    3  C4  UNL     1     -32.763   8.997   0.799  1.00 20.00     0.112 C 
ENDROOT
BRANCH   2   4
HETATM    4  C7  UNL     1     -32.732   5.089   2.133  1.00 20.00     0.365 C 
BRANCH   4   5
HETATM    5  N11 UNL     1     -33.744   4.879   3.176  1.00 20.00     0.096 N 
HETATM    6  C6  UNL     1     -33.708   3.483   3.629  1.00 20.00     0.311 C 
BRANCH   5   7
HETATM    7  C8  UNL     1     -33.548   5.789   4.282  1.00 20.00     0.291 C 
BRANCH   7   8
HETATM    8  C9  UNL     1     -34.602   5.595   5.380  1.00 20.00     0.117 C 
HETATM    9  C3  UNL     1     -35.945   5.377   4.807  1.00 20.00     0.065 C 
HETATM   10  N10 UNL     1     -37.001   5.205   4.359  1.00 20.00    -0.197 NA
HETATM   11  C5  UNL     1     -34.623   6.759   6.371  1.00 20.00     0.027 C 
ENDBRANCH   7   8
ENDBRANCH   5   7
ENDBRANCH   4   5
ENDBRANCH   2   4
TORSDOF 4
