REMARK  4 active torsions:
REMARK  status: ('A' for Active; 'I' for Inactive)
REMARK    1  A    between atoms: C1_1  and  C3_3 
REMARK    2  A    between atoms: C4_4  and  C10_10 
REMARK    3  A    between atoms: C8_8  and  C10_10 
REMARK    4  A    between atoms: C9_9  and  C10_10 
ROOT
HETATM    1  C2  UNL     1     -33.916   4.205   2.238  1.00 20.00     0.018 A 
HETATM    2  C3  UNL     1     -33.905   4.691   3.666  1.00 20.00     0.060 A 
HETATM    3  C4  UNL     1     -32.935   5.262   2.659  1.00 20.00     0.002 A 
ENDROOT
BRANCH   3   4
HETATM    4  C10 UNL     1     -33.068   6.689   2.118  1.00 20.00    -0.010 C 
BRANCH   4   5
HETATM    5  C8  UNL     1     -32.991   6.721   0.577  1.00 20.00     0.000 C 
HETATM    6  C6  UNL     1     -33.146   8.114  -0.018  1.00 20.00     0.005 C 
ENDBRANCH   4   5
BRANCH   4   7
HETATM    7  C9  UNL     1     -31.980   7.619   2.696  1.00 20.00     0.000 C 
HETATM    8  C7  UNL     1     -31.997   7.717   4.215  1.00 20.00     0.005 C 
ENDBRANCH   4   7
ENDBRANCH   3   4
BRANCH   2   9
HETATM    9  C1  UNL     1     -35.032   5.487   4.163  1.00 20.00     0.127 C 
HETATM   10  C5  UNL     1     -35.031   5.817   5.632  1.00 20.00     0.091 C 
HETATM   11  O11 UNL     1     -35.932   5.868   3.417  1.00 20.00    -0.298 OA
ENDBRANCH   2   9
TORSDOF 4
