REMARK  4 active torsions:
REMARK  status: ('A' for Active; 'I' for Inactive)
REMARK    1  A    between atoms: C2_2  and  C7_7 
REMARK    2  A    between atoms: C7_7  and  N11_11 
REMARK    3  A    between atoms: C8_8  and  C9_9 
REMARK    4  A    between atoms: C8_8  and  N11_11 
ROOT
HETATM    1  C1  UNL     1     -32.931   8.682   0.461  1.00 20.00    -0.109 C 
HETATM    2  C2  UNL     1     -32.468   7.781   1.106  1.00 20.00    -0.079 C 
HETATM    3  C4  UNL     1     -33.494   9.778  -0.325  1.00 20.00     0.112 C 
ENDROOT
BRANCH   2   4
HETATM    4  C7  UNL     1     -31.901   6.685   1.887  1.00 20.00     0.327 C 
BRANCH   4   5
HETATM    5  N11 UNL     1     -32.950   6.127   2.817  1.00 20.00    -0.064 N 
HETATM    6  C6  UNL     1     -34.266   5.938   2.105  1.00 20.00     0.270 C 
HETATM    7  H26 UNL     1     -32.627   5.180   3.078  1.00 20.00     0.280 HD
BRANCH   5   8
HETATM    8  C8  UNL     1     -33.084   6.919   4.065  1.00 20.00     0.254 C 
BRANCH   8   9
HETATM    9  C9  UNL     1     -33.986   6.223   5.090  1.00 20.00     0.114 C 
HETATM   10  C3  UNL     1     -33.734   4.770   5.132  1.00 20.00     0.065 C 
HETATM   11  N10 UNL     1     -33.537   3.627   5.165  1.00 20.00    -0.197 NA
HETATM   12  C5  UNL     1     -33.874   6.825   6.490  1.00 20.00     0.027 C 
ENDBRANCH   8   9
ENDBRANCH   5   8
ENDBRANCH   4   5
ENDBRANCH   2   4
TORSDOF 4
