REMARK  3 active torsions:
REMARK  status: ('A' for Active; 'I' for Inactive)
REMARK    1  A    between atoms: C2_2  and  C10_10 
REMARK    2  A    between atoms: C7_7  and  N11_11 
REMARK    3  A    between atoms: C10_10  and  N11_11 
ROOT
HETATM    1  C1  UNL     1     -32.664   8.910   1.077  1.00 20.00    -0.109 C 
HETATM    2  C2  UNL     1     -32.848   8.042   1.886  1.00 20.00    -0.077 C 
HETATM    3  C8  UNL     1     -32.440   9.966   0.091  1.00 20.00     0.112 C 
ENDROOT
BRANCH   2   4
HETATM    4  C10 UNL     1     -33.070   6.978   2.870  1.00 20.00     0.363 C 
BRANCH   4   5
HETATM    5  N11 UNL     1     -33.579   7.522   4.117  1.00 20.00     0.103 N 
HETATM    6  H28 UNL     1     -32.813   7.910   4.660  1.00 20.00     0.318 HD
BRANCH   5   7
HETATM    7  C7  UNL     1     -34.222   6.489   4.896  1.00 20.00     0.155 C 
HETATM    8  C5  UNL     1     -33.432   5.176   4.830  1.00 20.00     0.041 C 
HETATM    9  C3  UNL     1     -34.451   4.082   5.136  1.00 20.00     0.003 C 
HETATM   10  C4  UNL     1     -35.819   4.662   4.778  1.00 20.00     0.003 C 
HETATM   11  C6  UNL     1     -35.561   6.079   4.273  1.00 20.00     0.041 C 
HETATM   12  C9  UNL     1     -34.392   6.976   6.339  1.00 20.00     0.049 C 
ENDBRANCH   5   7
ENDBRANCH   4   5
ENDBRANCH   2   4
TORSDOF 3
