REMARK  6 active torsions:
REMARK  status: ('A' for Active; 'I' for Inactive)
REMARK    1  A    between atoms: C2_2  and  C5_5 
REMARK    2  A    between atoms: C5_5  and  C7_7 
REMARK    3  A    between atoms: C6_6  and  C8_8 
REMARK    4  A    between atoms: C7_7  and  C9_9 
REMARK    5  A    between atoms: C8_8  and  C9_9 
REMARK    6  A    between atoms: C9_9  and  O10_10 
ROOT
HETATM    1  C1  UNL     1     -34.577   5.542   5.209  1.00 20.00    -0.111 C 
HETATM    2  C2  UNL     1     -34.274   5.458   4.050  1.00 20.00    -0.107 C 
HETATM    3  C3  UNL     1     -34.943   5.643   6.620  1.00 20.00     0.112 C 
ENDROOT
BRANCH   2   4
HETATM    4  C5  UNL     1     -33.903   5.353   2.632  1.00 20.00     0.096 C 
BRANCH   4   5
HETATM    5  C7  UNL     1     -32.424   5.661   2.393  1.00 20.00     0.044 C 
BRANCH   5   6
HETATM    6  C9  UNL     1     -31.976   7.088   2.749  1.00 20.00     0.119 C 
BRANCH   6   7
HETATM    7  C8  UNL     1     -32.765   8.178   2.012  1.00 20.00     0.031 C 
BRANCH   7   8
HETATM    8  C6  UNL     1     -32.566   8.110   0.494  1.00 20.00    -0.002 C 
HETATM    9  C4  UNL     1     -33.314   9.229  -0.215  1.00 20.00     0.005 C 
ENDBRANCH   7   8
ENDBRANCH   6   7
BRANCH   6  10
HETATM   10  O10 UNL     1     -32.139   7.256   4.160  1.00 20.00    -0.396 OA
HETATM   11  H26 UNL     1     -31.579   6.587   4.580  1.00 20.00     0.210 HD
ENDBRANCH   6  10
ENDBRANCH   5   6
ENDBRANCH   4   5
ENDBRANCH   2   4
TORSDOF 6
