REMARK  4 active torsions:
REMARK  status: ('A' for Active; 'I' for Inactive)
REMARK    1  A    between atoms: C2_2  and  C7_7 
REMARK    2  A    between atoms: C5_5  and  C8_8 
REMARK    3  A    between atoms: C7_7  and  C8_8 
REMARK    4  A    between atoms: C8_8  and  O9_9 
ROOT
HETATM    1  C1  UNL     1     -32.908   7.616   1.740  1.00 20.00    -0.111 C 
HETATM    2  C2  UNL     1     -33.257   6.594   2.265  1.00 20.00    -0.104 C 
HETATM    3  C6  UNL     1     -32.484   8.861   1.101  1.00 20.00     0.112 C 
ENDROOT
BRANCH   2   4
HETATM    4  C7  UNL     1     -33.684   5.340   2.907  1.00 20.00     0.126 C 
BRANCH   4   5
HETATM    5  C8  UNL     1     -34.619   5.609   4.088  1.00 20.00     0.133 C 
BRANCH   5   6
HETATM    6  C5  UNL     1     -33.831   5.962   5.343  1.00 20.00     0.015 A 
HETATM    7  C3  UNL     1     -33.345   7.368   5.562  1.00 20.00     0.007 A 
HETATM    8  C4  UNL     1     -34.455   6.816   6.413  1.00 20.00     0.007 A 
ENDBRANCH   5   6
BRANCH   5   9
HETATM    9  O9  UNL     1     -35.382   4.431   4.348  1.00 20.00    -0.394 OA
HETATM   10  H21 UNL     1     -35.972   4.644   5.087  1.00 20.00     0.210 HD
ENDBRANCH   5   9
ENDBRANCH   4   5
ENDBRANCH   2   4
TORSDOF 4
