REMARK  2 active torsions:
REMARK  status: ('A' for Active; 'I' for Inactive)
REMARK    1  A    between atoms: C2_2  and  C11_11 
REMARK    2  A    between atoms: C7_7  and  C11_11 
ROOT
HETATM    1  C1  UNL     1     -32.786   8.630   1.033  1.00 20.00    -0.111 C 
HETATM    2  C2  UNL     1     -32.653   7.591   1.619  1.00 20.00    -0.106 C 
HETATM    3  C9  UNL     1     -32.948   9.896   0.318  1.00 20.00     0.112 C 
ENDROOT
BRANCH   2   4
HETATM    4  C11 UNL     1     -32.483   6.320   2.329  1.00 20.00     0.106 C 
BRANCH   4   5
HETATM    5  C7  UNL     1     -33.493   6.188   3.466  1.00 20.00     0.067 C 
HETATM    6  C3  UNL     1     -33.086   7.022   4.676  1.00 20.00     0.132 C 
HETATM    7  C4  UNL     1     -33.934   6.855   5.919  1.00 20.00     0.079 C 
HETATM    8  O12 UNL     1     -32.184   7.858   4.636  1.00 20.00    -0.298 OA
HETATM    9  C5  UNL     1     -34.083   5.381   6.273  1.00 20.00     0.011 C 
HETATM   10  C8  UNL     1     -34.567   4.522   5.096  1.00 20.00    -0.017 C 
HETATM   11  C6  UNL     1     -33.647   4.720   3.880  1.00 20.00     0.017 C 
HETATM   12  C10 UNL     1     -36.035   4.789   4.757  1.00 20.00     0.010 C 
ENDBRANCH   4   5
ENDBRANCH   2   4
TORSDOF 2
