REMARK  3 active torsions:
REMARK  status: ('A' for Active; 'I' for Inactive)
REMARK    1  A    between atoms: C2_2  and  C9_9 
REMARK    2  A    between atoms: C7_7  and  N10_10 
REMARK    3  A    between atoms: C9_9  and  N10_10 
ROOT
HETATM    1  C1  UNL     1     -33.103   8.049   0.464  1.00 20.00    -0.109 C 
HETATM    2  C2  UNL     1     -32.876   7.136   1.210  1.00 20.00    -0.077 C 
HETATM    3  C8  UNL     1     -33.380   9.160  -0.445  1.00 20.00     0.112 C 
ENDROOT
BRANCH   2   4
HETATM    4  C9  UNL     1     -32.596   6.018   2.116  1.00 20.00     0.363 C 
BRANCH   4   5
HETATM    5  N10 UNL     1     -32.947   6.358   3.485  1.00 20.00     0.099 N 
HETATM    6  H26 UNL     1     -32.460   5.738   4.127  1.00 20.00     0.317 HD
BRANCH   5   7
HETATM    7  C7  UNL     1     -34.370   6.218   3.695  1.00 20.00     0.225 C 
HETATM    8  C3  UNL     1     -34.824   7.025   4.913  1.00 20.00     0.062 C 
HETATM    9  C5  UNL     1     -34.432   6.340   6.218  1.00 20.00     0.169 C 
HETATM   10  O11 UNL     1     -34.932   5.004   6.258  1.00 20.00    -0.391 OA
HETATM   11  C6  UNL     1     -34.388   4.195   5.216  1.00 20.00     0.169 C 
HETATM   12  C4  UNL     1     -34.766   4.747   3.845  1.00 20.00     0.062 C 
ENDBRANCH   5   7
ENDBRANCH   4   5
ENDBRANCH   2   4
TORSDOF 3
