REMARK  3 active torsions:
REMARK  status: ('A' for Active; 'I' for Inactive)
REMARK    1  A    between atoms: C2_2  and  C7_7 
REMARK    2  A    between atoms: C3_3  and  C8_8 
REMARK    3  A    between atoms: C7_7  and  C8_8 
ROOT
HETATM    1  C1  UNL     1     -32.928   8.135   1.141  1.00 20.00    -0.111 C 
HETATM    2  C2  UNL     1     -32.941   7.124   1.789  1.00 20.00    -0.106 C 
HETATM    3  C4  UNL     1     -32.915   9.369   0.356  1.00 20.00     0.112 C 
ENDROOT
BRANCH   2   4
HETATM    4  C7  UNL     1     -32.954   5.886   2.583  1.00 20.00     0.105 C 
BRANCH   4   5
HETATM    5  C8  UNL     1     -33.917   5.943   3.777  1.00 20.00     0.062 C 
HETATM    6  C6  UNL     1     -34.338   4.547   4.242  1.00 20.00     0.018 C 
BRANCH   5   7
HETATM    7  C3  UNL     1     -33.345   6.766   4.933  1.00 20.00     0.127 C 
HETATM    8  C5  UNL     1     -33.806   6.408   6.324  1.00 20.00     0.091 C 
HETATM    9  O9  UNL     1     -32.531   7.673   4.758  1.00 20.00    -0.298 OA
ENDBRANCH   5   7
ENDBRANCH   4   5
ENDBRANCH   2   4
TORSDOF 3
