REMARK  2 active torsions:
REMARK  status: ('A' for Active; 'I' for Inactive)
REMARK    1  A    between atoms: C1_1  and  C3_3 
REMARK    2  A    between atoms: C2_2  and  C4_4 
ROOT
HETATM    1  C1  UNL     1     -32.354   6.992   2.029  1.00 20.00    -0.015 C 
HETATM    2  C2  UNL     1     -32.759   6.220   3.048  1.00 20.00    -0.015 C 
ENDROOT
BRANCH   1   3
HETATM    3  C3  UNL     1     -33.012   8.279   1.653  1.00 20.00     0.141 C 
HETATM    4 CL5  UNL     1     -32.843   8.558  -0.093  1.00 20.00    -0.126 Cl
ENDBRANCH   1   3
BRANCH   2   5
HETATM    5  C4  UNL     1     -33.916   6.555   3.931  1.00 20.00     0.141 C 
HETATM    6 CL6  UNL     1     -33.365   6.733   5.610  1.00 20.00    -0.126 Cl
ENDBRANCH   2   5
TORSDOF 2
