REMARK  1 active torsions:
REMARK  status: ('A' for Active; 'I' for Inactive)
REMARK    1  A    between atoms: C3_3  and  C8_8 
ROOT
HETATM    1  C1  UNL     1     -32.942   8.632   0.637  1.00 20.00     0.087 C 
HETATM    2  C2  UNL     1     -32.680   7.675   1.653  1.00 20.00     0.090 C 
HETATM    3  C3  UNL     1     -33.641   7.251   2.485  1.00 20.00    -0.011 C 
HETATM    4  N9  UNL     1     -33.153   9.413  -0.195  1.00 20.00    -0.192 NA
ENDROOT
BRANCH   3   5
HETATM    5  C8  UNL     1     -33.412   6.233   3.584  1.00 20.00     0.013 C 
HETATM    6  C4  UNL     1     -33.751   6.886   4.918  1.00 20.00     0.035 C 
HETATM    7  C6  UNL     1     -33.775   5.842   6.028  1.00 20.00     0.168 C 
HETATM    8  O10 UNL     1     -34.683   4.786   5.711  1.00 20.00    -0.391 OA
HETATM    9  C7  UNL     1     -34.309   4.093   4.520  1.00 20.00     0.168 C 
HETATM   10  C5  UNL     1     -34.318   5.036   3.322  1.00 20.00     0.035 C 
ENDBRANCH   3   5
TORSDOF 1
