REMARK  1 active torsions:
REMARK  status: ('A' for Active; 'I' for Inactive)
REMARK    1  A    between atoms: C1_1  and  C6_6 
ROOT
HETATM    1  C2  UNL     1     -33.706   5.068   2.428  1.00 20.00     0.021 C 
HETATM    2  C3  UNL     1     -32.054   6.825   3.386  1.00 20.00     0.027 A 
HETATM    3  C4  UNL     1     -33.981   3.980   3.448  1.00 20.00     0.075 C 
HETATM    4  C5  UNL     1     -34.440   6.474   4.352  1.00 20.00     0.084 C 
HETATM    5  C6  UNL     1     -33.000   7.607   2.511  1.00 20.00     0.097 A 
HETATM    6  C7  UNL     1     -33.473   6.339   3.204  1.00 20.00    -0.017 A 
HETATM    7  S10 UNL     1     -35.032   4.784   4.682  1.00 20.00    -0.168 SA
ENDROOT
BRANCH   5   8
HETATM    8  C1  UNL     1     -32.770   7.582   1.080  1.00 20.00     0.177 C 
HETATM    9  O8  UNL     1     -32.356   6.482   0.620  1.00 20.00    -0.648 OA
HETATM   10  O9  UNL     1     -33.016   8.668   0.485  1.00 20.00    -0.648 OA
ENDBRANCH   5   8
TORSDOF 1
