REMARK  3 active torsions:
REMARK  status: ('A' for Active; 'I' for Inactive)
REMARK    1  A    between atoms: C2_2  and  C9_9 
REMARK    2  A    between atoms: C6_6  and  C9_9 
REMARK    3  A    between atoms: C7_7  and  O10_10 
ROOT
HETATM    1  C3  UNL     1     -34.043   6.547   6.239  1.00 20.00     0.003 C 
HETATM    2  C4  UNL     1     -33.146   6.918   5.056  1.00 20.00     0.008 C 
HETATM    3  C5  UNL     1     -34.884   5.349   5.789  1.00 20.00     0.032 C 
HETATM    4  C6  UNL     1     -33.683   6.108   3.874  1.00 20.00     0.022 C 
HETATM    5  C7  UNL     1     -34.193   4.827   4.535  1.00 20.00     0.122 C 
ENDROOT
BRANCH   4   6
HETATM    6  C9  UNL     1     -32.640   5.892   2.789  1.00 20.00     0.010 C 
HETATM    7  C8  UNL     1     -33.202   5.021   1.661  1.00 20.00     0.014 C 
BRANCH   6   8
HETATM    8  C2  UNL     1     -32.172   7.215   2.233  1.00 20.00    -0.032 C 
HETATM    9  C1  UNL     1     -32.973   8.101   1.630  1.00 20.00     0.007 C 
ENDBRANCH   6   8
ENDBRANCH   4   6
BRANCH   5  10
HETATM   10  O10 UNL     1     -33.112   3.977   4.899  1.00 20.00    -0.395 OA
HETATM   11  H26 UNL     1     -33.493   3.245   5.411  1.00 20.00     0.210 HD
ENDBRANCH   5  10
TORSDOF 3
