REMARK  3 active torsions:
REMARK  status: ('A' for Active; 'I' for Inactive)
REMARK    1  A    between atoms: C4_4  and  N10_10 
REMARK    2  A    between atoms: C7_7  and  C8_8 
REMARK    3  A    between atoms: C7_7  and  N10_10 
ROOT
HETATM    1  C1  UNL     1     -33.057   8.552   0.923  1.00 20.00     0.065 C 
HETATM    2  C6  UNL     1     -31.424   7.991   2.688  1.00 20.00     0.027 C 
HETATM    3  C8  UNL     1     -32.779   7.658   2.063  1.00 20.00     0.116 C 
HETATM    4  N9  UNL     1     -33.277   9.256   0.027  1.00 20.00    -0.197 NA
ENDROOT
BRANCH   3   5
HETATM    5  C7  UNL     1     -32.882   6.181   1.658  1.00 20.00     0.288 C 
BRANCH   5   6
HETATM    6  N10 UNL     1     -33.050   5.312   2.810  1.00 20.00     0.089 N 
HETATM    7  H24 UNL     1     -32.757   4.368   2.571  1.00 20.00     0.316 HD
BRANCH   6   8
HETATM    8  C4  UNL     1     -34.454   5.277   3.230  1.00 20.00     0.224 A 
HETATM    9  C2  UNL     1     -34.876   4.448   4.415  1.00 20.00     0.042 A 
HETATM   10  C3  UNL     1     -34.935   5.949   4.492  1.00 20.00     0.016 A 
HETATM   11  C5  UNL     1     -34.017   6.688   5.404  1.00 20.00     0.012 C 
ENDBRANCH   6   8
ENDBRANCH   5   6
ENDBRANCH   3   5
TORSDOF 3
