REMARK  2 active torsions:
REMARK  status: ('A' for Active; 'I' for Inactive)
REMARK    1  A    between atoms: C4_4  and  N9_9 
REMARK    2  A    between atoms: C7_7  and  N9_9 
ROOT
HETATM    1  C1  UNL     1     -32.333   7.015   1.264  1.00 20.00     0.094 C 
HETATM    2  C6  UNL     1     -33.739   5.150   2.057  1.00 20.00     0.059 C 
HETATM    3  C7  UNL     1     -32.786   6.272   2.447  1.00 20.00     0.322 C 
HETATM    4  N8  UNL     1     -31.972   7.600   0.329  1.00 20.00    -0.195 NA
ENDROOT
BRANCH   3   5
HETATM    5  N9  UNL     1     -33.420   7.180   3.389  1.00 20.00     0.106 N 
HETATM    6  H21 UNL     1     -32.900   8.053   3.424  1.00 20.00     0.318 HD
BRANCH   5   7
HETATM    7  C4  UNL     1     -33.446   6.594   4.733  1.00 20.00     0.226 A 
HETATM    8  C2  UNL     1     -34.066   7.349   5.879  1.00 20.00     0.042 A 
HETATM    9  C3  UNL     1     -34.747   6.124   5.333  1.00 20.00     0.016 A 
HETATM   10  C5  UNL     1     -34.791   4.871   6.137  1.00 20.00     0.012 C 
ENDBRANCH   5   7
ENDBRANCH   3   5
TORSDOF 2
