REMARK  1 active torsions:
REMARK  status: ('A' for Active; 'I' for Inactive)
REMARK    1  A    between atoms: C4_4  and  N6_6 
ROOT
HETATM    1  C1  UNL     1     -33.044   6.511   2.751  1.00 20.00     0.158 C 
HETATM    2  N6  UNL     1     -33.408   5.595   3.396  1.00 20.00    -0.270 NA
HETATM    3  S7  UNL     1     -32.535   7.738   1.873  1.00 20.00    -0.055 SA
ENDROOT
BRANCH   2   4
HETATM    4  C4  UNL     1     -34.659   5.800   4.115  1.00 20.00     0.114 A 
HETATM    5  C2  UNL     1     -34.906   4.962   5.340  1.00 20.00     0.034 A 
HETATM    6  C3  UNL     1     -34.629   6.433   5.482  1.00 20.00     0.008 A 
HETATM    7  C5  UNL     1     -33.359   6.899   6.106  1.00 20.00     0.012 C 
ENDBRANCH   2   4
TORSDOF 1
