REMARK  2 active torsions:
REMARK  status: ('A' for Active; 'I' for Inactive)
REMARK    1  A    between atoms: C5_5  and  N8_8 
REMARK    2  A    between atoms: C7_7  and  N8_8 
ROOT
HETATM    1  C1  UNL     1     -32.945   8.367   0.678  1.00 20.00     0.013 C 
HETATM    2  C2  UNL     1     -32.678   7.481   1.443  1.00 20.00    -0.087 C 
HETATM    3  C7  UNL     1     -32.347   6.402   2.377  1.00 20.00     0.362 C 
ENDROOT
BRANCH   3   4
HETATM    4  N8  UNL     1     -33.529   5.618   2.695  1.00 20.00     0.099 N 
HETATM    5  H19 UNL     1     -33.250   4.710   3.056  1.00 20.00     0.317 HD
BRANCH   4   6
HETATM    6  C5  UNL     1     -34.341   6.298   3.709  1.00 20.00     0.225 A 
HETATM    7  C3  UNL     1     -35.350   5.526   4.518  1.00 20.00     0.042 A 
HETATM    8  C4  UNL     1     -34.100   6.041   5.175  1.00 20.00     0.016 A 
HETATM    9  C6  UNL     1     -34.176   7.161   6.154  1.00 20.00     0.012 C 
ENDBRANCH   4   6
ENDBRANCH   3   4
TORSDOF 2
