REMARK  1 active torsions:
REMARK  status: ('A' for Active; 'I' for Inactive)
REMARK    1  A    between atoms: C8_8  and  N10_10 
ROOT
HETATM    1  C1  UNL     1     -34.269   4.714   4.754  1.00 20.00     0.130 C 
HETATM    2  C2  UNL     1     -34.679   6.163   4.649  1.00 20.00     0.108 C 
HETATM    3  C3  UNL     1     -33.808   4.063   3.472  1.00 20.00     0.108 C 
HETATM    4  C5  UNL     1     -33.648   6.953   3.847  1.00 20.00     0.280 C 
HETATM    5  C6  UNL     1     -32.826   4.969   2.736  1.00 20.00     0.280 C 
HETATM    6  N10 UNL     1     -33.379   6.319   2.547  1.00 20.00     0.094 N 
HETATM    7  O11 UNL     1     -34.410   4.073   5.794  1.00 20.00    -0.298 OA
ENDROOT
BRANCH   6   8
HETATM    8  C8  UNL     1     -32.457   7.140   1.763  1.00 20.00     0.227 A 
HETATM    9  C4  UNL     1     -32.370   6.969   0.268  1.00 20.00     0.042 A 
HETATM   10  C7  UNL     1     -32.986   8.214   0.846  1.00 20.00     0.017 A 
HETATM   11  C9  UNL     1     -32.278   9.520   0.736  1.00 20.00     0.012 C 
ENDBRANCH   6   8
TORSDOF 1
