REMARK  1 active torsions:
REMARK  status: ('A' for Active; 'I' for Inactive)
REMARK    1  A    between atoms: C5_5  and  C6_6 
ROOT
HETATM    1  C1  UNL     1     -34.901   4.687   4.890  1.00 20.00     0.014 A 
HETATM    2  C2  UNL     1     -33.903   6.666   6.297  1.00 20.00     0.275 C 
HETATM    3  C3  UNL     1     -35.071   5.919   5.737  1.00 20.00     0.021 A 
HETATM    4  C4  UNL     1     -35.025   6.053   4.261  1.00 20.00     0.034 A 
HETATM    5  C5  UNL     1     -33.838   6.910   3.929  1.00 20.00     0.331 C 
HETATM    6  N7  UNL     1     -33.009   6.878   5.148  1.00 20.00     0.097 N 
HETATM    7  H18 UNL     1     -32.477   7.740   5.252  1.00 20.00     0.316 HD
ENDROOT
BRANCH   5   8
HETATM    8  C6  UNL     1     -33.062   6.403   2.728  1.00 20.00     0.418 C 
HETATM    9  F8  UNL     1     -31.989   7.180   2.500  1.00 20.00    -0.169 F 
HETATM   10  F9  UNL     1     -32.640   5.143   2.939  1.00 20.00    -0.169 F 
HETATM   11  F10 UNL     1     -33.838   6.415   1.629  1.00 20.00    -0.169 F 
ENDBRANCH   5   8
TORSDOF 1
