REMARK  4 active torsions:
REMARK  status: ('A' for Active; 'I' for Inactive)
REMARK    1  A    between atoms: C1_1  and  C3_3 
REMARK    2  A    between atoms: C2_2  and  C6_6 
REMARK    3  A    between atoms: C6_6  and  C7_7 
REMARK    4  A    between atoms: C7_7  and  O8_8 
ROOT
HETATM    1  C1  UNL     1     -33.150   7.369   2.966  1.00 20.00    -0.079 C 
HETATM    2  C2  UNL     1     -33.428   6.870   4.022  1.00 20.00    -0.100 C 
ENDROOT
BRANCH   2   3
HETATM    3  C6  UNL     1     -33.769   6.261   5.317  1.00 20.00     0.120 C 
BRANCH   3   4
HETATM    4  C7  UNL     1     -34.715   5.081   5.146  1.00 20.00     0.176 C 
BRANCH   4   5
HETATM    5  O8  UNL     1     -35.933   5.525   4.560  1.00 20.00    -0.400 OA
HETATM    6  H18 UNL     1     -36.501   4.743   4.471  1.00 20.00     0.209 HD
ENDBRANCH   4   5
ENDBRANCH   3   4
ENDBRANCH   2   3
BRANCH   1   7
HETATM    7  C3  UNL     1     -32.816   7.958   1.717  1.00 20.00     0.060 C 
HETATM    8  C4  UNL     1     -33.737   8.565   0.957  1.00 20.00    -0.022 C 
HETATM    9  C5  UNL     1     -33.435   9.199  -0.361  1.00 20.00     0.036 C 
ENDBRANCH   1   7
TORSDOF 4
