REMARK  3 active torsions:
REMARK  status: ('A' for Active; 'I' for Inactive)
REMARK    1  A    between atoms: C4_4  and  C6_6 
REMARK    2  A    between atoms: C6_6  and  C7_7 
REMARK    3  A    between atoms: C7_7  and  C8_8 
ROOT
HETATM    1  C1  UNL     1     -34.897   4.472   3.921  1.00 20.00     0.029 C 
HETATM    2  C2  UNL     1     -33.779   5.123   3.147  1.00 20.00     0.034 C 
HETATM    3  C3  UNL     1     -34.793   5.163   5.264  1.00 20.00     0.168 C 
HETATM    4  C4  UNL     1     -33.863   6.556   3.644  1.00 20.00     0.121 C 
HETATM    5  O9  UNL     1     -34.279   6.481   5.018  1.00 20.00    -0.386 OA
ENDROOT
BRANCH   4   6
HETATM    6  C6  UNL     1     -32.550   7.308   3.545  1.00 20.00     0.033 C 
BRANCH   6   7
HETATM    7  C7  UNL     1     -32.073   7.409   2.092  1.00 20.00     0.022 C 
BRANCH   7   8
HETATM    8  C8  UNL     1     -33.072   8.124   1.173  1.00 20.00     0.078 C 
HETATM    9  C5  UNL     1     -32.556   8.182  -0.260  1.00 20.00     0.026 C 
HETATM   10 CL10 UNL     1     -33.388   9.792   1.740  1.00 20.00    -0.125 Cl
ENDBRANCH   7   8
ENDBRANCH   6   7
ENDBRANCH   4   6
TORSDOF 3
