REMARK  3 active torsions:
REMARK  status: ('A' for Active; 'I' for Inactive)
REMARK    1  A    between atoms: C4_4  and  C6_6 
REMARK    2  A    between atoms: C6_6  and  C7_7 
REMARK    3  A    between atoms: C7_7  and  C8_8 
ROOT
HETATM    1  C1  UNL     1     -34.959   4.677   4.020  1.00 20.00     0.029 C 
HETATM    2  C2  UNL     1     -33.926   5.282   3.103  1.00 20.00     0.034 C 
HETATM    3  C3  UNL     1     -34.579   5.275   5.358  1.00 20.00     0.168 C 
HETATM    4  C4  UNL     1     -33.800   6.685   3.673  1.00 20.00     0.121 C 
HETATM    5  O9  UNL     1     -33.995   6.560   5.091  1.00 20.00    -0.386 OA
ENDROOT
BRANCH   4   6
HETATM    6  C6  UNL     1     -32.458   7.333   3.393  1.00 20.00     0.033 C 
BRANCH   6   7
HETATM    7  C7  UNL     1     -32.214   7.483   1.888  1.00 20.00     0.022 C 
BRANCH   7   8
HETATM    8  C8  UNL     1     -33.279   8.331   1.181  1.00 20.00     0.078 C 
HETATM    9  C5  UNL     1     -33.318   9.746   1.745  1.00 20.00     0.026 C 
HETATM   10 CL10 UNL     1     -32.968   8.420  -0.579  1.00 20.00    -0.125 Cl
ENDBRANCH   7   8
ENDBRANCH   6   7
ENDBRANCH   4   6
TORSDOF 3
