REMARK  5 active torsions:
REMARK  status: ('A' for Active; 'I' for Inactive)
REMARK    1  A    between atoms: C1_1  and  C7_7 
REMARK    2  A    between atoms: C1_1  and  C11_11 
REMARK    3  A    between atoms: C7_7  and  C10_10 
REMARK    4  A    between atoms: C8_8  and  C9_9 
REMARK    5  A    between atoms: C9_9  and  C10_10 
ROOT
HETATM    1  C1  UNL     1     -33.733   5.341   2.902  1.00 20.00     0.134 C 
HETATM    2  O12 UNL     1     -33.021   4.427   2.480  1.00 20.00    -0.297 OA
ENDROOT
BRANCH   1   3
HETATM    3  C7  UNL     1     -33.865   6.651   2.128  1.00 20.00     0.083 C 
BRANCH   3   4
HETATM    4  C10 UNL     1     -32.521   7.370   1.899  1.00 20.00    -0.012 C 
HETATM    5  C3  UNL     1     -31.847   7.683   3.240  1.00 20.00     0.010 C 
BRANCH   4   6
HETATM    6  C9  UNL     1     -32.765   8.649   1.070  1.00 20.00     0.004 C 
BRANCH   6   7
HETATM    7  C8  UNL     1     -33.375   8.379  -0.308  1.00 20.00    -0.004 C 
HETATM    8  C2  UNL     1     -33.525   9.664  -1.109  1.00 20.00     0.005 C 
ENDBRANCH   6   7
ENDBRANCH   4   6
ENDBRANCH   3   4
ENDBRANCH   1   3
BRANCH   1   9
HETATM    9  C11 UNL     1     -34.506   5.205   4.231  1.00 20.00     0.009 C 
HETATM   10  C4  UNL     1     -36.015   5.358   3.997  1.00 20.00     0.022 C 
HETATM   11  C5  UNL     1     -34.197   3.836   4.850  1.00 20.00     0.022 C 
HETATM   12  C6  UNL     1     -34.051   6.306   5.205  1.00 20.00     0.022 C 
ENDBRANCH   1   9
TORSDOF 5
