REMARK  3 active torsions:
REMARK  status: ('A' for Active; 'I' for Inactive)
REMARK    1  A    between atoms: C1_1  and  C9_9 
REMARK    2  A    between atoms: C3_3  and  C8_8 
REMARK    3  A    between atoms: C9_9  and  N10_10 
ROOT
HETATM    1  C4  UNL     1     -32.785   7.104   5.754  1.00 20.00     0.028 C 
HETATM    2  C5  UNL     1     -34.309   7.010   5.768  1.00 20.00     0.015 C 
HETATM    3  C6  UNL     1     -32.257   7.478   4.379  1.00 20.00     0.235 C 
HETATM    4  C7  UNL     1     -34.254   6.409   3.296  1.00 20.00     0.246 C 
HETATM    5  C8  UNL     1     -34.852   6.110   4.662  1.00 20.00     0.073 C 
HETATM    6  N10 UNL     1     -32.745   6.470   3.369  1.00 20.00    -0.067 N 
HETATM    7  H27 UNL     1     -32.411   5.546   3.676  1.00 20.00     0.280 HD
ENDROOT
BRANCH   6   8
HETATM    8  C9  UNL     1     -32.135   6.704   2.014  1.00 20.00     0.263 C 
BRANCH   8   9
HETATM    9  C1  UNL     1     -32.525   8.019   1.422  1.00 20.00     0.012 C 
HETATM   10  C2  UNL     1     -33.199   8.136   0.274  1.00 20.00     0.082 C 
HETATM   11 CL12 UNL     1     -33.648   9.648  -0.395  1.00 20.00    -0.097 Cl
ENDBRANCH   8   9
ENDBRANCH   6   8
BRANCH   5  12
HETATM   12  C3  UNL     1     -34.620   4.662   5.068  1.00 20.00     0.237 C 
HETATM   13  O11 UNL     1     -34.002   3.858   4.378  1.00 20.00    -0.306 OA
ENDBRANCH   5  12
TORSDOF 3
