REMARK  4 active torsions:
REMARK  status: ('A' for Active; 'I' for Inactive)
REMARK    1  A    between atoms: C3_3  and  C8_8 
REMARK    2  A    between atoms: C3_3  and  O9_9 
REMARK    3  A    between atoms: C6_6  and  C7_7 
REMARK    4  A    between atoms: C7_7  and  C8_8 
ROOT
HETATM    1  C1  UNL     1     -34.528   6.444   5.593  1.00 20.00     0.041 A 
HETATM    2  C2  UNL     1     -33.481   5.395   5.341  1.00 20.00     0.041 A 
HETATM    3  C3  UNL     1     -33.343   6.758   4.720  1.00 20.00     0.061 A 
ENDROOT
BRANCH   3   4
HETATM    4  C8  UNL     1     -33.530   6.940   3.211  1.00 20.00     0.016 C 
HETATM    5  C5  UNL     1     -34.156   5.679   2.614  1.00 20.00     0.013 C 
BRANCH   4   6
HETATM    6  C7  UNL     1     -32.182   7.294   2.557  1.00 20.00     0.007 C 
BRANCH   6   7
HETATM    7  C6  UNL     1     -32.285   7.560   1.054  1.00 20.00    -0.004 C 
HETATM    8  C4  UNL     1     -33.277   8.673   0.754  1.00 20.00     0.005 C 
ENDBRANCH   6   7
ENDBRANCH   4   6
ENDBRANCH   3   4
BRANCH   3   9
HETATM    9  O9  UNL     1     -32.348   7.621   5.295  1.00 20.00    -0.389 OA
HETATM   10  H25 UNL     1     -32.028   7.165   6.085  1.00 20.00     0.210 HD
ENDBRANCH   3   9
TORSDOF 4
