REMARK  2 active torsions:
REMARK  status: ('A' for Active; 'I' for Inactive)
REMARK    1  A    between atoms: C2_2  and  C7_7 
REMARK       I    between atoms: C2_2  and  N8_8 
REMARK    2  A    between atoms: C6_6  and  C7_7 
ROOT
HETATM    1  C1  UNL     1     -33.050   8.208   1.611  1.00 20.00     0.166 C 
HETATM    2  C2  UNL     1     -32.850   7.119   3.508  1.00 20.00     0.252 C 
HETATM    3  N8  UNL     1     -32.949   7.159   2.128  1.00 20.00    -0.199 NA
HETATM    4  O9  UNL     1     -31.961   7.646   4.178  1.00 20.00    -0.270 OA
HETATM    5  S10 UNL     1     -33.188   9.613   0.873  1.00 20.00    -0.055 SA
ENDROOT
BRANCH   2   6
HETATM    6  C7  UNL     1     -33.989   6.318   4.179  1.00 20.00     0.035 C 
HETATM    7  C4  UNL     1     -33.981   4.865   3.671  1.00 20.00     0.025 C 
HETATM    8  C5  UNL     1     -35.331   6.957   3.773  1.00 20.00     0.025 C 
BRANCH   6   9
HETATM    9  C6  UNL     1     -33.857   6.359   5.723  1.00 20.00     0.014 C 
HETATM   10  C3  UNL     1     -34.937   5.595   6.481  1.00 20.00     0.006 C 
ENDBRANCH   6   9
ENDBRANCH   2   6
TORSDOF 2
