REMARK  2 active torsions:
REMARK  status: ('A' for Active; 'I' for Inactive)
REMARK    1  A    between atoms: C7_7  and  C11_11 
REMARK    2  A    between atoms: C8_8  and  C12_12 
ROOT
HETATM    1  C1  UNL     1     -34.185   3.569   5.800  1.00 20.00     0.012 C 
HETATM    2  C2  UNL     1     -34.368   4.387   4.941  1.00 20.00    -0.117 C 
HETATM    3  C11 UNL     1     -34.603   5.384   3.892  1.00 20.00     0.105 C 
ENDROOT
BRANCH   3   4
HETATM    4  C7  UNL     1     -33.299   6.056   3.473  1.00 20.00     0.067 C 
HETATM    5  C3  UNL     1     -32.872   7.107   4.495  1.00 20.00     0.132 C 
HETATM    6  C4  UNL     1     -32.057   8.276   3.977  1.00 20.00     0.079 C 
HETATM    7  O13 UNL     1     -33.169   7.027   5.686  1.00 20.00    -0.298 OA
HETATM    8  C5  UNL     1     -31.244   7.853   2.761  1.00 20.00     0.012 C 
HETATM    9  C8  UNL     1     -32.127   7.340   1.609  1.00 20.00    -0.010 C 
HETATM   10  C6  UNL     1     -33.452   6.729   2.105  1.00 20.00     0.018 C 
BRANCH   9  11
HETATM   11  C12 UNL     1     -32.407   8.444   0.587  1.00 20.00    -0.019 C 
HETATM   12  C9  UNL     1     -33.254   7.907  -0.564  1.00 20.00     0.010 C 
HETATM   13  C10 UNL     1     -33.097   9.631   1.256  1.00 20.00     0.010 C 
ENDBRANCH   9  11
ENDBRANCH   3   4
TORSDOF 2
