REMARK  1 active torsions:
REMARK  status: ('A' for Active; 'I' for Inactive)
REMARK    1  A    between atoms: C1_1  and  C6_6 
ROOT
HETATM    1  C2  UNL     1     -33.899   6.643   6.464  1.00 20.00     0.027 C 
HETATM    2  C3  UNL     1     -33.221   6.907   5.127  1.00 20.00     0.017 C 
HETATM    3  C4  UNL     1     -34.554   5.263   6.487  1.00 20.00     0.167 C 
HETATM    4  C5  UNL     1     -35.378   5.821   4.326  1.00 20.00     0.181 C 
HETATM    5  C6  UNL     1     -34.222   6.761   3.977  1.00 20.00     0.096 C 
HETATM    6  O8  UNL     1     -34.925   4.784   5.194  1.00 20.00    -0.390 OA
ENDROOT
BRANCH   5   7
HETATM    7  C1  UNL     1     -33.499   6.250   2.766  1.00 20.00     0.225 C 
HETATM    8  O7  UNL     1     -33.830   5.207   2.210  1.00 20.00    -0.279 OA
HETATM    9 CL9  UNL     1     -32.194   7.295   2.293  1.00 20.00    -0.043 Cl
ENDBRANCH   5   7
TORSDOF 1
