REMARK  0 active torsions:
REMARK  status: ('A' for Active; 'I' for Inactive)
ROOT
HETATM    1  C1  UNL     1     -34.612   5.326   6.133  1.00 20.00    -0.006 C 
HETATM    2  C2  UNL     1     -34.177   6.561   6.404  1.00 20.00     0.112 C 
HETATM    3  C3  UNL     1     -33.487   7.029   4.279  1.00 20.00     0.023 C 
HETATM    4  C4  UNL     1     -33.530   5.215   2.481  1.00 20.00     0.136 C 
HETATM    5  C5  UNL     1     -34.424   4.734   4.779  1.00 20.00     0.046 C 
HETATM    6  C6  UNL     1     -32.798   7.955   3.301  1.00 20.00     0.056 C 
HETATM    7  C7  UNL     1     -32.828   6.173   1.544  1.00 20.00     0.079 C 
HETATM    8  C8  UNL     1     -31.959   7.145   2.327  1.00 20.00     0.013 C 
HETATM    9  C9  UNL     1     -34.211   5.811   3.709  1.00 20.00     0.106 C 
HETATM   10  N10 UNL     1     -33.513   7.377   5.530  1.00 20.00    -0.269 NA
HETATM   11  O11 UNL     1     -33.639   4.024   2.186  1.00 20.00    -0.297 OA
ENDROOT
TORSDOF 0
