REMARK  3 active torsions:
REMARK  status: ('A' for Active; 'I' for Inactive)
REMARK    1  A    between atoms: C2_2  and  C7_7 
REMARK    2  A    between atoms: C5_5  and  C7_7 
REMARK    3  A    between atoms: C6_6  and  C7_7 
ROOT
HETATM    1  C7  UNL     1     -33.291   6.600   3.670  1.00 20.00     0.016 C 
ENDROOT
BRANCH   1   2
HETATM    2  C2  UNL     1     -34.095   5.422   3.113  1.00 20.00     0.149 A 
HETATM    3  C1  UNL     1     -33.411   4.193   2.582  1.00 20.00     0.200 A 
HETATM    4  O8  UNL     1     -34.008   4.222   3.888  1.00 20.00    -0.381 OA
ENDBRANCH   1   2
BRANCH   1   5
HETATM    5  C5  UNL     1     -33.912   7.145   4.973  1.00 20.00     0.002 C 
HETATM    6  C3  UNL     1     -34.015   6.112   6.086  1.00 20.00     0.005 C 
ENDBRANCH   1   5
BRANCH   1   7
HETATM    7  C6  UNL     1     -33.182   7.748   2.645  1.00 20.00     0.002 C 
HETATM    8  C4  UNL     1     -32.524   7.343   1.333  1.00 20.00     0.005 C 
ENDBRANCH   1   7
TORSDOF 3
