REMARK  3 active torsions:
REMARK  status: ('A' for Active; 'I' for Inactive)
REMARK    1  A    between atoms: C2_2  and  C6_6 
REMARK    2  A    between atoms: C6_6  and  C7_7 
REMARK    3  A    between atoms: C7_7  and  C8_8 
ROOT
HETATM    1  C6  UNL     1     -33.899   7.383   2.600  1.00 20.00     0.040 C 
ENDROOT
BRANCH   1   2
HETATM    2  C2  UNL     1     -33.796   6.445   3.793  1.00 20.00     0.079 A 
HETATM    3  C1  UNL     1     -33.876   4.953   3.576  1.00 20.00     0.206 A 
HETATM    4  O9  UNL     1     -34.999   5.708   4.056  1.00 20.00    -0.375 OA
HETATM    5  C3  UNL     1     -33.134   6.975   5.024  1.00 20.00     0.048 C 
ENDBRANCH   1   2
BRANCH   1   6
HETATM    6  C7  UNL     1     -32.543   7.562   1.913  1.00 20.00     0.007 C 
BRANCH   6   7
HETATM    7  C8  UNL     1     -32.605   8.447   0.655  1.00 20.00    -0.023 C 
HETATM    8  C4  UNL     1     -33.113   9.842   1.026  1.00 20.00     0.009 C 
HETATM    9  C5  UNL     1     -33.493   7.849  -0.437  1.00 20.00     0.009 C 
ENDBRANCH   6   7
ENDBRANCH   1   6
TORSDOF 3
