REMARK  1 active torsions:
REMARK  status: ('A' for Active; 'I' for Inactive)
REMARK    1  A    between atoms: C4_4  and  C5_5 
ROOT
HETATM    1  C1  UNL     1     -33.882   5.223   2.018  1.00 20.00     0.007 A 
HETATM    2  C2  UNL     1     -32.874   6.210   2.538  1.00 20.00     0.007 A 
HETATM    3  C4  UNL     1     -33.634   5.335   3.496  1.00 20.00     0.017 A 
ENDROOT
BRANCH   3   4
HETATM    4  C5  UNL     1     -34.671   5.885   4.463  1.00 20.00     0.149 A 
HETATM    5  C3  UNL     1     -34.891   5.337   5.841  1.00 20.00     0.200 A 
HETATM    6  O6  UNL     1     -34.139   6.540   5.616  1.00 20.00    -0.381 OA
ENDBRANCH   3   4
TORSDOF 1
