REMARK  1 active torsions:
REMARK  status: ('A' for Active; 'I' for Inactive)
REMARK    1  A    between atoms: C7_7  and  C8_8 
ROOT
HETATM    1  C1  UNL     1     -33.296   4.858   2.359  1.00 20.00     0.132 C 
HETATM    2  C2  UNL     1     -34.028   4.430   3.608  1.00 20.00     0.079 C 
HETATM    3  C3  UNL     1     -34.812   5.592   4.205  1.00 20.00     0.008 C 
HETATM    4  C4  UNL     1     -33.893   6.745   4.602  1.00 20.00     0.006 C 
HETATM    5  C5  UNL     1     -32.611   6.174   2.415  1.00 20.00     0.073 A 
HETATM    6  C6  UNL     1     -32.944   7.150   3.516  1.00 20.00     0.011 A 
HETATM    7  C7  UNL     1     -33.407   7.423   2.106  1.00 20.00     0.110 A 
HETATM    8  O9  UNL     1     -33.199   4.152   1.363  1.00 20.00    -0.298 OA
ENDROOT
BRANCH   7   9
HETATM    9  C8  UNL     1     -32.786   8.524   1.318  1.00 20.00     0.392 C 
HETATM   10  F10 UNL     1     -33.376   9.715   1.579  1.00 20.00    -0.171 F 
HETATM   11  F11 UNL     1     -31.467   8.655   1.600  1.00 20.00    -0.171 F 
HETATM   12  F12 UNL     1     -32.894   8.303  -0.015  1.00 20.00    -0.171 F 
ENDBRANCH   7   9
TORSDOF 1
