REMARK  3 active torsions:
REMARK  status: ('A' for Active; 'I' for Inactive)
REMARK    1  A    between atoms: C3_3  and  C4_4 
REMARK    2  A    between atoms: C3_3  and  C5_5 
REMARK    3  A    between atoms: C4_4  and  O6_6 
ROOT
HETATM    1  C1  UNL     1     -34.439   7.834   5.146  1.00 20.00     0.022 A 
HETATM    2  C2  UNL     1     -33.289   6.969   5.575  1.00 20.00     0.022 A 
HETATM    3  C3  UNL     1     -34.020   6.662   4.289  1.00 20.00     0.079 A 
ENDROOT
BRANCH   3   4
HETATM    4  C4  UNL     1     -34.917   5.455   4.258  1.00 20.00     0.182 C 
BRANCH   4   5
HETATM    5  O6  UNL     1     -35.409   5.199   5.569  1.00 20.00    -0.400 OA
HETATM    6  H16 UNL     1     -35.980   4.417   5.504  1.00 20.00     0.209 HD
ENDBRANCH   4   5
ENDBRANCH   3   4
BRANCH   3   7
HETATM    7  C5  UNL     1     -33.317   6.952   2.992  1.00 20.00     0.397 C 
HETATM    8  F7  UNL     1     -32.170   7.631   3.205  1.00 20.00    -0.170 F 
HETATM    9  F8  UNL     1     -33.009   5.809   2.343  1.00 20.00    -0.170 F 
HETATM   10  F9  UNL     1     -34.095   7.696   2.177  1.00 20.00    -0.170 F 
ENDBRANCH   3   7
TORSDOF 3
