REMARK  0 active torsions:
REMARK  status: ('A' for Active; 'I' for Inactive)
ROOT
HETATM    1  C1  UNL     1     -34.182   7.148   5.867  1.00 20.00     0.013 C 
HETATM    2  C2  UNL     1     -33.212   5.986   6.163  1.00 20.00     0.013 C 
HETATM    3  C3  UNL     1     -35.954   5.918   4.504  1.00 20.00     0.280 C 
HETATM    4  C4  UNL     1     -34.417   4.078   4.973  1.00 20.00     0.280 C 
HETATM    5  C5  UNL     1     -34.732   6.857   4.457  1.00 20.00     0.086 C 
HETATM    6  C6  UNL     1     -33.262   5.096   4.906  1.00 20.00     0.086 C 
HETATM    7  C7  UNL     1     -33.564   6.120   3.827  1.00 20.00     0.254 C 
HETATM    8  N8  UNL     1     -35.723   4.685   5.270  1.00 20.00     0.084 N 
HETATM    9  F9  UNL     1     -33.863   5.567   2.640  1.00 20.00    -0.205 F 
HETATM   10  F10 UNL     1     -32.514   6.950   3.639  1.00 20.00    -0.205 F 
HETATM   11  H21 UNL     1     -35.753   4.913   6.264  1.00 20.00     0.315 HD
ENDROOT
TORSDOF 0
