REMARK  0 active torsions:
REMARK  status: ('A' for Active; 'I' for Inactive)
ROOT
HETATM    1  C1  UNL     1     -33.010   7.998   3.674  1.00 20.00     0.027 C 
HETATM    2  C2  UNL     1     -33.347   7.225   4.947  1.00 20.00     0.027 C 
HETATM    3  C3  UNL     1     -34.343   4.598   2.171  1.00 20.00     0.009 C 
HETATM    4  C4  UNL     1     -34.726   7.066   2.032  1.00 20.00     0.030 C 
HETATM    5  C5  UNL     1     -32.352   6.111   2.088  1.00 20.00     0.030 C 
HETATM    6  C6  UNL     1     -35.295   5.775   4.164  1.00 20.00     0.030 C 
HETATM    7  C7  UNL     1     -32.922   4.817   4.218  1.00 20.00     0.030 C 
HETATM    8  C8  UNL     1     -35.234   5.752   2.633  1.00 20.00    -0.010 C 
HETATM    9  C9  UNL     1     -32.921   4.820   2.686  1.00 20.00    -0.010 C 
HETATM   10  C10 UNL     1     -33.238   7.351   2.302  1.00 20.00     0.038 C 
HETATM   11  C11 UNL     1     -33.918   5.804   4.851  1.00 20.00     0.038 C 
HETATM   12 CL12 UNL     1     -32.706   8.603   1.086  1.00 20.00    -0.119 Cl
HETATM   13 CL13 UNL     1     -34.173   5.271   6.577  1.00 20.00    -0.119 Cl
ENDROOT
TORSDOF 0
