REMARK  3 active torsions:
REMARK  status: ('A' for Active; 'I' for Inactive)
REMARK    1  A    between atoms: C1_1  and  C4_4 
REMARK       I    between atoms: C1_1  and  N10_10 
REMARK    2  A    between atoms: C8_8  and  C9_9 
REMARK    3  A    between atoms: C9_9  and  N10_10 
ROOT
HETATM    1  C1  UNL     1     -32.975   7.180   2.581  1.00 20.00     0.222 C 
HETATM    2  N10 UNL     1     -34.229   6.663   2.820  1.00 20.00    -0.352 N 
HETATM    3  O11 UNL     1     -31.918   6.788   3.060  1.00 20.00    -0.273 OA
HETATM    4  H28 UNL     1     -35.023   7.084   2.355  1.00 20.00     0.163 HD
ENDROOT
BRANCH   2   5
HETATM    5  C9  UNL     1     -34.462   5.537   3.709  1.00 20.00     0.025 C 
HETATM    6  C6  UNL     1     -35.970   5.241   3.728  1.00 20.00     0.038 C 
HETATM    7  C7  UNL     1     -33.720   4.306   3.171  1.00 20.00     0.038 C 
BRANCH   5   8
HETATM    8  C8  UNL     1     -34.006   5.892   5.145  1.00 20.00     0.026 C 
HETATM    9  C5  UNL     1     -34.234   4.797   6.182  1.00 20.00     0.007 C 
ENDBRANCH   5   8
ENDBRANCH   2   5
BRANCH   1  10
HETATM   10  C4  UNL     1     -32.971   8.333   1.633  1.00 20.00     0.078 A 
HETATM   11  C2  UNL     1     -32.105   8.255   0.420  1.00 20.00     0.015 A 
HETATM   12  C3  UNL     1     -33.595   8.150   0.289  1.00 20.00     0.015 A 
ENDBRANCH   1  10
TORSDOF 3
