REMARK  1 active torsions:
REMARK  status: ('A' for Active; 'I' for Inactive)
REMARK    1  A    between atoms: C7_7  and  C8_8 
ROOT
HETATM    1  C1  UNL     1     -34.484   4.570   5.785  1.00 20.00     0.005 C 
HETATM    2  C2  UNL     1     -34.343   3.926   4.398  1.00 20.00     0.005 C 
HETATM    3  C3  UNL     1     -35.570   5.943   4.172  1.00 20.00     0.010 C 
HETATM    4  C4  UNL     1     -33.445   6.691   4.938  1.00 20.00     0.010 C 
HETATM    5  C5  UNL     1     -34.746   6.049   5.454  1.00 20.00    -0.014 C 
HETATM    6  C6  UNL     1     -34.503   5.123   3.443  1.00 20.00    -0.009 C 
HETATM    7  C7  UNL     1     -33.242   6.013   3.566  1.00 20.00     0.004 C 
ENDROOT
BRANCH   7   8
HETATM    8  C8  UNL     1     -33.121   7.027   2.433  1.00 20.00     0.119 C 
HETATM    9 CL9  UNL     1     -32.880   6.191   0.887  1.00 20.00    -0.130 Cl
ENDBRANCH   7   8
TORSDOF 1
