REMARK  3 active torsions:
REMARK  status: ('A' for Active; 'I' for Inactive)
REMARK    1  A    between atoms: C4_4  and  C7_7 
REMARK    2  A    between atoms: C6_6  and  C7_7 
REMARK    3  A    between atoms: C7_7  and  O9_9 
ROOT
HETATM    1  C1  UNL     1     -33.572   6.923   5.367  1.00 20.00     0.035 C 
HETATM    2  C2  UNL     1     -34.508   6.548   6.497  1.00 20.00     0.168 C 
HETATM    3  C3  UNL     1     -34.729   4.961   4.806  1.00 20.00     0.174 C 
HETATM    4  C4  UNL     1     -34.239   6.257   4.183  1.00 20.00     0.040 C 
HETATM    5  O8  UNL     1     -35.062   5.265   6.169  1.00 20.00    -0.391 OA
ENDROOT
BRANCH   4   6
HETATM    6  C7  UNL     1     -33.327   6.055   2.988  1.00 20.00     0.124 C 
BRANCH   6   7
HETATM    7  C6  UNL     1     -32.817   7.392   2.441  1.00 20.00     0.027 C 
HETATM    8  C5  UNL     1     -31.936   7.220   1.210  1.00 20.00     0.007 C 
ENDBRANCH   6   7
BRANCH   6   9
HETATM    9  O9  UNL     1     -34.049   5.380   1.959  1.00 20.00    -0.395 OA
HETATM   10  H23 UNL     1     -34.800   5.949   1.733  1.00 20.00     0.210 HD
ENDBRANCH   6   9
ENDBRANCH   4   6
TORSDOF 3
