REMARK  3 active torsions:
REMARK  status: ('A' for Active; 'I' for Inactive)
REMARK    1  A    between atoms: C4_4  and  C7_7 
REMARK    2  A    between atoms: C6_6  and  C7_7 
REMARK    3  A    between atoms: C7_7  and  O9_9 
ROOT
HETATM    1  C1  UNL     1     -35.034   5.164   4.588  1.00 20.00     0.035 C 
HETATM    2  C2  UNL     1     -34.353   4.890   5.914  1.00 20.00     0.168 C 
HETATM    3  C3  UNL     1     -33.853   7.074   5.271  1.00 20.00     0.174 C 
HETATM    4  C4  UNL     1     -34.215   6.301   4.012  1.00 20.00     0.040 C 
HETATM    5  O8  UNL     1     -33.739   6.116   6.333  1.00 20.00    -0.391 OA
ENDROOT
BRANCH   4   6
HETATM    6  C7  UNL     1     -32.973   5.798   3.279  1.00 20.00     0.124 C 
BRANCH   6   7
HETATM    7  C6  UNL     1     -32.178   6.955   2.664  1.00 20.00     0.027 C 
HETATM    8  C5  UNL     1     -33.010   7.780   1.690  1.00 20.00     0.007 C 
ENDBRANCH   6   7
BRANCH   6   9
HETATM    9  O9  UNL     1     -33.374   4.909   2.238  1.00 20.00    -0.395 OA
HETATM   10  H23 UNL     1     -32.561   4.614   1.800  1.00 20.00     0.210 HD
ENDBRANCH   6   9
ENDBRANCH   4   6
TORSDOF 3
