REMARK  4 active torsions:
REMARK  status: ('A' for Active; 'I' for Inactive)
REMARK    1  A    between atoms: C2_2  and  C3_3 
REMARK    2  A    between atoms: C3_3  and  C5_5 
REMARK    3  A    between atoms: C5_5  and  C6_6 
REMARK    4  A    between atoms: C6_6  and  C7_7 
ROOT
HETATM    1  C3  UNL     1     -33.269   6.662   4.443  1.00 20.00     0.154 C 
HETATM    2  O8  UNL     1     -33.160   7.608   5.225  1.00 20.00    -0.293 OA
ENDROOT
BRANCH   1   3
HETATM    3  C2  UNL     1     -34.137   5.493   4.820  1.00 20.00    -0.025 C 
HETATM    4  C1  UNL     1     -34.770   4.759   3.895  1.00 20.00     0.022 C 
HETATM    5  C4  UNL     1     -34.255   5.193   6.286  1.00 20.00     0.051 C 
ENDBRANCH   1   3
BRANCH   1   6
HETATM    6  C5  UNL     1     -32.543   6.647   3.104  1.00 20.00     0.084 C 
BRANCH   6   7
HETATM    7  C6  UNL     1     -32.973   7.805   2.198  1.00 20.00     0.023 C 
BRANCH   7   8
HETATM    8  C7  UNL     1     -32.323   7.766   0.819  1.00 20.00     0.115 C 
HETATM    9 CL9  UNL     1     -32.862   9.111  -0.212  1.00 20.00    -0.130 Cl
ENDBRANCH   7   8
ENDBRANCH   6   7
ENDBRANCH   1   6
TORSDOF 4
