REMARK  2 active torsions:
REMARK  status: ('A' for Active; 'I' for Inactive)
REMARK    1  A    between atoms: C8_8  and  C11_11 
REMARK    2  A    between atoms: C10_10  and  C11_11 
ROOT
HETATM    1  C11 UNL     1     -32.376   7.248   3.853  1.00 20.00     0.046 C 
ENDROOT
BRANCH   1   2
HETATM    2  C8  UNL     1     -32.624   7.814   2.505  1.00 20.00    -0.076 A 
HETATM    3  C4  UNL     1     -32.502   7.208   1.314  1.00 20.00     0.003 A 
HETATM    4  C3  UNL     1     -32.844   8.134   0.266  1.00 20.00    -0.003 A 
HETATM    5  C5  UNL     1     -33.178   9.316   0.803  1.00 20.00    -0.022 A 
HETATM    6  C9  UNL     1     -33.072   9.236   2.299  1.00 20.00     0.061 A 
ENDBRANCH   1   2
BRANCH   1   7
HETATM    7  C10 UNL     1     -33.624   7.335   4.713  1.00 20.00     0.034 A 
HETATM    8  C6  UNL     1     -33.402   6.784   6.099  1.00 20.00    -0.018 A 
HETATM    9  C1  UNL     1     -34.245   5.765   6.317  1.00 20.00    -0.004 A 
HETATM   10  C2  UNL     1     -35.064   5.558   5.152  1.00 20.00    -0.004 A 
HETATM   11  C7  UNL     1     -34.731   6.447   4.205  1.00 20.00    -0.018 A 
ENDBRANCH   1   7
TORSDOF 2
