REMARK  3 active torsions:
REMARK  status: ('A' for Active; 'I' for Inactive)
REMARK    1  A    between atoms: C4_4  and  C7_7 
REMARK    2  A    between atoms: C6_6  and  C7_7 
REMARK    3  A    between atoms: C7_7  and  O9_9 
ROOT
HETATM    1  C1  UNL     1     -34.797   5.542   3.374  1.00 20.00     0.035 C 
HETATM    2  C2  UNL     1     -34.439   4.276   4.124  1.00 20.00     0.168 C 
HETATM    3  C3  UNL     1     -34.228   6.078   5.586  1.00 20.00     0.174 C 
HETATM    4  C4  UNL     1     -34.097   6.622   4.173  1.00 20.00     0.040 C 
HETATM    5  O8  UNL     1     -34.206   4.647   5.489  1.00 20.00    -0.391 OA
ENDROOT
BRANCH   4   6
HETATM    6  C7  UNL     1     -32.635   6.783   3.760  1.00 20.00     0.124 C 
BRANCH   6   7
HETATM    7  C6  UNL     1     -32.510   7.205   2.293  1.00 20.00     0.027 C 
HETATM    8  C5  UNL     1     -33.239   8.510   1.998  1.00 20.00     0.007 C 
ENDBRANCH   6   7
BRANCH   6   9
HETATM    9  O9  UNL     1     -32.025   7.778   4.581  1.00 20.00    -0.395 OA
HETATM   10  H23 UNL     1     -32.098   7.462   5.495  1.00 20.00     0.210 HD
ENDBRANCH   6   9
ENDBRANCH   4   6
TORSDOF 3
