REMARK  1 active torsions:
REMARK  status: ('A' for Active; 'I' for Inactive)
REMARK    1  A    between atoms: C1_1  and  C4_4 
ROOT
HETATM    1  C1  UNL     1     -33.641   5.688   4.142  1.00 20.00     0.172 C 
HETATM    2  C2  UNL     1     -34.687   5.295   6.103  1.00 20.00     0.160 C 
HETATM    3  C3  UNL     1     -34.501   6.801   6.205  1.00 20.00     0.103 C 
HETATM    4  N5  UNL     1     -34.435   4.847   4.718  1.00 20.00    -0.278 NA
HETATM    5  S9  UNL     1     -33.176   7.117   5.026  1.00 20.00    -0.104 SA
ENDROOT
BRANCH   1   6
HETATM    6  C4  UNL     1     -33.135   5.522   2.750  1.00 20.00     0.440 C 
HETATM    7  F6  UNL     1     -32.357   6.565   2.384  1.00 20.00    -0.164 F 
HETATM    8  F7  UNL     1     -32.395   4.398   2.626  1.00 20.00    -0.164 F 
HETATM    9  F8  UNL     1     -34.151   5.441   1.862  1.00 20.00    -0.164 F 
ENDBRANCH   1   6
TORSDOF 1
