REMARK  2 active torsions:
REMARK  status: ('A' for Active; 'I' for Inactive)
REMARK    1  A    between atoms: C2_2  and  C3_3 
REMARK    2  A    between atoms: C2_2  and  C4_4 
ROOT
HETATM    1  C2  UNL     1     -33.818   6.296   3.890  1.00 20.00     0.154 C 
ENDROOT
BRANCH   1   2
HETATM    2  C3  UNL     1     -33.673   5.752   2.472  1.00 20.00     0.174 C 
HETATM    3  C1  UNL     1     -32.648   6.531   1.668  1.00 20.00     0.045 C 
HETATM    4  F5  UNL     1     -33.254   4.457   2.541  1.00 20.00    -0.250 F 
ENDBRANCH   1   2
BRANCH   1   5
HETATM    5  C4  UNL     1     -34.847   5.526   4.691  1.00 20.00     0.390 C 
HETATM    6  F6  UNL     1     -34.966   6.048   5.932  1.00 20.00    -0.171 F 
HETATM    7  F7  UNL     1     -34.501   4.228   4.824  1.00 20.00    -0.171 F 
HETATM    8  F8  UNL     1     -36.063   5.577   4.107  1.00 20.00    -0.171 F 
ENDBRANCH   1   5
TORSDOF 2
