REMARK  1 active torsions:
REMARK  status: ('A' for Active; 'I' for Inactive)
REMARK    1  A    between atoms: C4_4  and  C6_6 
ROOT
HETATM    1  C1  UNL     1     -34.091   4.603   4.037  1.00 20.00     0.135 A 
HETATM    2  C2  UNL     1     -33.952   5.828   4.651  1.00 20.00     0.136 A 
HETATM    3  C3  UNL     1     -33.209   5.466   2.112  1.00 20.00     0.144 A 
HETATM    4  C4  UNL     1     -33.071   6.692   2.725  1.00 20.00     0.065 A 
HETATM    5  N7  UNL     1     -33.722   4.400   2.757  1.00 20.00    -0.270 NA
HETATM    6  N8  UNL     1     -33.440   6.895   4.006  1.00 20.00    -0.261 NA
ENDROOT
BRANCH   4   7
HETATM    7  C6  UNL     1     -32.501   7.849   1.982  1.00 20.00     0.107 C 
HETATM    8  C5  UNL     1     -32.168   7.546   0.544  1.00 20.00     0.029 C 
HETATM    9 BR9  UNL     1     -33.739   9.371   2.063  1.00 20.00    -0.085 Br
ENDBRANCH   4   7
TORSDOF 1
