REMARK  1 active torsions:
REMARK  status: ('A' for Active; 'I' for Inactive)
REMARK    1  A    between atoms: C3_3  and  C5_5 
ROOT
HETATM    1  C1  UNL     1     -31.840   7.977   2.001  1.00 20.00     0.012 C 
HETATM    2  C2  UNL     1     -32.668   7.521   2.740  1.00 20.00    -0.111 C 
HETATM    3  C4  UNL     1     -33.659   6.976   3.624  1.00 20.00     0.088 A 
HETATM    4  C5  UNL     1     -33.220   5.996   4.689  1.00 20.00     0.112 A 
HETATM    5  C6  UNL     1     -34.068   5.517   3.524  1.00 20.00    -0.018 A 
HETATM    6  C7  UNL     1     -35.530   5.200   3.733  1.00 20.00     0.017 C 
HETATM    7  C8  UNL     1     -33.403   4.605   2.520  1.00 20.00     0.017 C 
ENDROOT
BRANCH   4   8
HETATM    8  C3  UNL     1     -33.822   6.118   6.004  1.00 20.00     0.179 C 
HETATM    9  O9  UNL     1     -34.359   5.067   6.451  1.00 20.00    -0.648 OA
HETATM   10  O10 UNL     1     -33.728   7.265   6.525  1.00 20.00    -0.648 OA
ENDBRANCH   4   8
TORSDOF 1
