REMARK  2 active torsions:
REMARK  status: ('A' for Active; 'I' for Inactive)
REMARK    1  A    between atoms: C3_3  and  C6_6 
REMARK    2  A    between atoms: C4_4  and  C7_7 
ROOT
HETATM    1  C1  UNL     1     -33.022   7.536   1.386  1.00 20.00    -0.176 C 
HETATM    2  C2  UNL     1     -32.953   8.813   1.158  1.00 20.00     0.091 C 
HETATM    3  C3  UNL     1     -33.090   6.258   1.611  1.00 20.00     0.072 C 
ENDROOT
BRANCH   3   4
HETATM    4  C6  UNL     1     -33.034   5.761   2.977  1.00 20.00     0.017 A 
HETATM    5  C5  UNL     1     -33.641   4.423   3.290  1.00 20.00     0.022 A 
HETATM    6  C7  UNL     1     -34.314   5.680   3.778  1.00 20.00     0.092 A 
BRANCH   6   7
HETATM    7  C4  UNL     1     -34.234   5.976   5.195  1.00 20.00     0.177 C 
HETATM    8  O8  UNL     1     -33.772   7.115   5.482  1.00 20.00    -0.648 OA
HETATM    9  O9  UNL     1     -34.640   5.051   5.953  1.00 20.00    -0.648 OA
ENDBRANCH   6   7
ENDBRANCH   3   4
TORSDOF 2
