REMARK  0 active torsions:
REMARK  status: ('A' for Active; 'I' for Inactive)
ROOT
HETATM    1  C1  UNL     1     -33.722   6.809   4.190  1.00 20.00     0.025 A 
HETATM    2  C2  UNL     1     -33.309   6.536   2.943  1.00 20.00     0.091 A 
HETATM    3  C3  UNL     1     -34.450   5.701   4.864  1.00 20.00     0.227 A 
HETATM    4  C4  UNL     1     -33.541   8.074   4.967  1.00 20.00     0.055 C 
HETATM    5  O5  UNL     1     -34.909   5.775   5.994  1.00 20.00    -0.279 OA
HETATM    6  S6  UNL     1     -33.639   4.993   2.237  1.00 20.00    -0.036 SA
HETATM    7  S7  UNL     1     -34.591   4.261   3.880  1.00 20.00    -0.009 SA
HETATM    8 CL8  UNL     1     -32.444   7.672   1.971  1.00 20.00    -0.075 Cl
ENDROOT
TORSDOF 0
