REMARK  1 active torsions:
REMARK  status: ('A' for Active; 'I' for Inactive)
REMARK    1  A    between atoms: C1_1  and  C2_2 
ROOT
HETATM    1  C2  UNL     1     -35.505   5.722   4.191  1.00 20.00     0.064 A 
HETATM    2  C3  UNL     1     -34.021   5.593   3.880  1.00 20.00    -0.030 A 
HETATM    3  C4  UNL     1     -34.487   6.097   5.257  1.00 20.00    -0.030 A 
HETATM    4  C5  UNL     1     -33.431   6.575   2.891  1.00 20.00     0.016 C 
HETATM    5  C6  UNL     1     -33.386   4.224   3.763  1.00 20.00     0.016 C 
HETATM    6  C7  UNL     1     -34.304   5.218   6.475  1.00 20.00     0.016 C 
HETATM    7  C8  UNL     1     -34.346   7.566   5.596  1.00 20.00     0.016 C 
ENDROOT
BRANCH   1   8
HETATM    8  C1  UNL     1     -36.359   4.535   4.337  1.00 20.00     0.237 C 
HETATM    9  O9  UNL     1     -37.061   4.325   5.320  1.00 20.00    -0.306 OA
ENDBRANCH   1   8
TORSDOF 1
