REMARK  2 active torsions:
REMARK  status: ('A' for Active; 'I' for Inactive)
REMARK    1  A    between atoms: C1_1  and  C3_3 
REMARK    2  A    between atoms: C1_1  and  O7_7 
ROOT
HETATM    1  C2  UNL     1     -31.934   8.030   2.070  1.00 20.00     0.055 A 
HETATM    2  C3  UNL     1     -32.786   6.832   1.813  1.00 20.00     0.122 A 
HETATM    3  C4  UNL     1     -33.304   8.185   1.494  1.00 20.00     0.184 A 
HETATM    4  F8  UNL     1     -33.401   8.512   0.153  1.00 20.00    -0.248 F 
ENDROOT
BRANCH   2   5
HETATM    5  C1  UNL     1     -33.366   6.109   2.991  1.00 20.00     0.265 C 
HETATM    6  O6  UNL     1     -33.528   4.897   3.039  1.00 20.00    -0.265 OA
BRANCH   5   7
HETATM    7  O7  UNL     1     -33.672   7.006   3.971  1.00 20.00    -0.326 OA
HETATM    8  C5  UNL     1     -34.238   6.448   5.161  1.00 20.00     0.213 C 
ENDBRANCH   5   7
ENDBRANCH   2   5
TORSDOF 2
