REMARK  2 active torsions:
REMARK  status: ('A' for Active; 'I' for Inactive)
REMARK    1  A    between atoms: C1_1  and  C4_4 
REMARK    2  A    between atoms: C4_4  and  C5_5 
ROOT
HETATM    1  C4  UNL     1     -33.287   6.923   3.858  1.00 20.00     0.137 C 
ENDROOT
BRANCH   1   2
HETATM    2  C1  UNL     1     -32.968   6.298   2.496  1.00 20.00     0.174 C 
HETATM    3  O6  UNL     1     -32.361   7.055   1.688  1.00 20.00    -0.648 OA
HETATM    4  O7  UNL     1     -33.371   5.111   2.343  1.00 20.00    -0.648 OA
ENDBRANCH   1   2
BRANCH   1   5
HETATM    5  C5  UNL     1     -34.090   6.021   4.810  1.00 20.00     0.039 C 
HETATM    6  C2  UNL     1     -34.374   6.707   6.150  1.00 20.00     0.032 C 
HETATM    7  C3  UNL     1     -35.400   5.539   4.177  1.00 20.00     0.032 C 
HETATM    8 CL8  UNL     1     -33.080   4.561   5.150  1.00 20.00    -0.119 Cl
ENDBRANCH   1   5
TORSDOF 2
