REMARK  0 active torsions:
REMARK  status: ('A' for Active; 'I' for Inactive)
ROOT
HETATM    1  C1  UNL     1     -33.073   7.339   2.431  1.00 20.00     0.064 C 
HETATM    2  C2  UNL     1     -33.509   4.911   2.655  1.00 20.00     0.030 C 
HETATM    3  C3  UNL     1     -33.978   3.912   3.700  1.00 20.00     0.075 C 
HETATM    4  C4  UNL     1     -34.645   6.478   4.136  1.00 20.00     0.093 C 
HETATM    5  C5  UNL     1     -33.344   6.247   3.375  1.00 20.00     0.103 C 
HETATM    6  N6  UNL     1     -32.859   8.202   1.685  1.00 20.00    -0.197 NA
HETATM    7  S7  UNL     1     -35.131   4.839   4.750  1.00 20.00    -0.168 SA
ENDROOT
TORSDOF 0
