REMARK  1 active torsions:
REMARK  status: ('A' for Active; 'I' for Inactive)
REMARK    1  A    between atoms: C2_2  and  C8_8 
ROOT
HETATM    1  C1  UNL     1     -33.150   5.422   2.143  1.00 20.00     0.203 C 
HETATM    2  C2  UNL     1     -32.261   6.424   2.881  1.00 20.00     0.244 C 
HETATM    3  C3  UNL     1     -33.268   5.738   4.960  1.00 20.00     0.245 C 
HETATM    4  C4  UNL     1     -34.157   4.734   4.201  1.00 20.00     0.150 C 
HETATM    5  C5  UNL     1     -33.905   6.240   6.253  1.00 20.00     0.045 C 
HETATM    6  C6  UNL     1     -35.582   5.208   3.905  1.00 20.00     0.042 C 
HETATM    7  N9  UNL     1     -32.936   6.883   4.102  1.00 20.00     0.097 N 
HETATM    8  O10 UNL     1     -33.499   4.326   2.991  1.00 20.00    -0.382 OA
HETATM    9  H27 UNL     1     -32.329   7.529   4.607  1.00 20.00     0.317 HD
ENDROOT
BRANCH   2  10
HETATM   10  C8  UNL     1     -31.938   7.622   1.995  1.00 20.00     0.033 C 
HETATM   11  C7  UNL     1     -33.174   8.345   1.569  1.00 20.00     0.007 C 
ENDBRANCH   2  10
TORSDOF 1
