REMARK  2 active torsions:
REMARK  status: ('A' for Active; 'I' for Inactive)
REMARK    1  A    between atoms: C8_8  and  C9_9 
REMARK    2  A    between atoms: C8_8  and  N10_10 
ROOT
HETATM    1  C1  UNL     1     -33.396   6.325   4.960  1.00 20.00     0.039 C 
HETATM    2  C2  UNL     1     -33.875   4.465   3.345  1.00 20.00     0.039 C 
HETATM    3  C3  UNL     1     -33.034   7.213   3.765  1.00 20.00     0.273 C 
HETATM    4  C4  UNL     1     -33.498   5.415   2.204  1.00 20.00     0.273 C 
HETATM    5  C5  UNL     1     -34.392   5.203   4.598  1.00 20.00    -0.044 C 
HETATM    6  C6  UNL     1     -34.489   4.210   5.770  1.00 20.00     0.015 C 
HETATM    7  C7  UNL     1     -35.797   5.782   4.347  1.00 20.00     0.015 C 
HETATM    8  N10 UNL     1     -32.517   6.413   2.648  1.00 20.00     0.089 N 
ENDROOT
BRANCH   8   9
HETATM    9  C8  UNL     1     -32.127   7.279   1.535  1.00 20.00     0.287 C 
BRANCH   9  10
HETATM   10  C9  UNL     1     -33.302   8.043   0.950  1.00 20.00     0.144 C 
HETATM   11 CL11 UNL     1     -32.791   9.081  -0.404  1.00 20.00    -0.129 Cl
ENDBRANCH   9  10
ENDBRANCH   8   9
TORSDOF 2
