REMARK  2 active torsions:
REMARK  status: ('A' for Active; 'I' for Inactive)
REMARK    1  A    between atoms: C4_4  and  C5_5 
REMARK    2  A    between atoms: C5_5  and  N6_6 
ROOT
HETATM    1  C1  UNL     1     -32.634   7.833   1.671  1.00 20.00     0.158 C 
HETATM    2  N6  UNL     1     -32.312   6.987   2.414  1.00 20.00    -0.264 NA
HETATM    3  S7  UNL     1     -33.038   8.999   0.664  1.00 20.00    -0.055 SA
ENDROOT
BRANCH   2   4
HETATM    4  C5  UNL     1     -33.351   5.980   2.684  1.00 20.00     0.060 C 
HETATM    5  C2  UNL     1     -34.592   6.367   1.872  1.00 20.00     0.041 C 
HETATM    6  C3  UNL     1     -32.828   4.622   2.207  1.00 20.00     0.041 C 
BRANCH   4   7
HETATM    7  C4  UNL     1     -33.692   5.992   4.182  1.00 20.00     0.147 C 
HETATM    8 CL8  UNL     1     -34.988   4.847   4.623  1.00 20.00    -0.128 Cl
ENDBRANCH   4   7
ENDBRANCH   2   4
TORSDOF 2
