REMARK  3 active torsions:
REMARK  status: ('A' for Active; 'I' for Inactive)
REMARK    1  A    between atoms: C3_3  and  C7_7 
REMARK    2  A    between atoms: C5_5  and  C6_6 
REMARK    3  A    between atoms: C6_6  and  C7_7 
ROOT
HETATM    1  C1  UNL     1     -33.506   9.194   1.094  1.00 20.00     0.012 C 
HETATM    2  C2  UNL     1     -32.821   8.385   1.658  1.00 20.00    -0.117 C 
HETATM    3  C5  UNL     1     -31.977   7.398   2.346  1.00 20.00     0.093 C 
ENDROOT
BRANCH   3   4
HETATM    4  C6  UNL     1     -32.777   6.176   2.815  1.00 20.00     0.023 C 
BRANCH   4   5
HETATM    5  C7  UNL     1     -33.944   6.514   3.759  1.00 20.00     0.044 C 
HETATM    6  C4  UNL     1     -33.428   7.187   5.029  1.00 20.00     0.017 C 
BRANCH   5   7
HETATM    7  C3  UNL     1     -34.742   5.290   4.176  1.00 20.00     0.235 C 
HETATM    8  O8  UNL     1     -34.521   4.144   3.799  1.00 20.00    -0.306 OA
ENDBRANCH   5   7
ENDBRANCH   4   5
ENDBRANCH   3   4
TORSDOF 3
