REMARK  3 active torsions:
REMARK  status: ('A' for Active; 'I' for Inactive)
REMARK    1  A    between atoms: C3_3  and  C4_4 
REMARK    2  A    between atoms: C4_4  and  C5_5 
REMARK    3  A    between atoms: C5_5  and  C6_6 
ROOT
HETATM    1  C4  UNL     1     -32.611   6.743   3.614  1.00 20.00     0.005 C 
ENDROOT
BRANCH   1   2
HETATM    2  C3  UNL     1     -34.062   6.828   4.059  1.00 20.00    -0.014 A 
HETATM    3  C1  UNL     1     -34.894   5.580   4.170  1.00 20.00     0.005 A 
HETATM    4  C2  UNL     1     -34.470   6.314   5.412  1.00 20.00     0.005 A 
ENDBRANCH   1   2
BRANCH   1   5
HETATM    5  C5  UNL     1     -32.483   6.853   2.094  1.00 20.00     0.015 C 
BRANCH   5   6
HETATM    6  C6  UNL     1     -33.073   8.163   1.589  1.00 20.00     0.114 C 
HETATM    7 CL7  UNL     1     -32.901   8.280  -0.178  1.00 20.00    -0.130 Cl
ENDBRANCH   5   6
ENDBRANCH   1   5
TORSDOF 3
