REMARK  1 active torsions:
REMARK  status: ('A' for Active; 'I' for Inactive)
REMARK    1  A    between atoms: C1_1  and  C2_2 
ROOT
HETATM    1  C1  UNL     1     -33.963   6.481   3.774  1.00 20.00     0.417 C 
HETATM    2  F3  UNL     1     -34.034   5.372   2.997  1.00 20.00    -0.208 F 
HETATM    3  F4  UNL     1     -32.762   7.058   3.532  1.00 20.00    -0.208 F 
ENDROOT
BRANCH   1   4
HETATM    4  C2  UNL     1     -34.056   6.087   5.221  1.00 20.00     0.417 C 
HETATM    5  F5  UNL     1     -34.030   7.194   6.000  1.00 20.00    -0.208 F 
HETATM    6  F6  UNL     1     -35.243   5.470   5.448  1.00 20.00    -0.208 F 
ENDBRANCH   1   4
TORSDOF 1
