REMARK  2 active torsions:
REMARK  status: ('A' for Active; 'I' for Inactive)
REMARK    1  A    between atoms: C1_1  and  C2_2 
REMARK    2  A    between atoms: C2_2  and  C3_3 
ROOT
HETATM    1  C2  UNL     1     -33.854   5.153   4.114  1.00 20.00     0.365 C 
HETATM    2  F5  UNL     1     -34.851   4.254   3.876  1.00 20.00    -0.193 F 
HETATM    3  F6  UNL     1     -32.875   4.460   4.759  1.00 20.00    -0.193 F 
ENDROOT
BRANCH   1   4
HETATM    4  C1  UNL     1     -34.400   6.215   5.055  1.00 20.00     0.345 C 
HETATM    5  F4  UNL     1     -34.892   5.583   6.159  1.00 20.00    -0.226 F 
HETATM    6 CL9  UNL     1     -33.169   7.376   5.587  1.00 20.00    -0.083 Cl
ENDBRANCH   1   4
BRANCH   1   7
HETATM    7  C3  UNL     1     -33.304   5.617   2.775  1.00 20.00     0.388 C 
HETATM    8  F7  UNL     1     -34.298   6.244   2.091  1.00 20.00    -0.181 F 
HETATM    9  F8  UNL     1     -32.935   4.554   2.017  1.00 20.00    -0.181 F 
HETATM   10 CL10 UNL     1     -31.934   6.727   2.942  1.00 20.00    -0.042 Cl
ENDBRANCH   1   7
TORSDOF 2
