REMARK  2 active torsions:
REMARK  status: ('A' for Active; 'I' for Inactive)
REMARK    1  A    between atoms: C1_1  and  C2_2 
REMARK    2  A    between atoms: C2_2  and  C3_3 
ROOT
HETATM    1  C2  UNL     1     -34.095   5.300   4.230  1.00 20.00     0.396 C 
HETATM    2  F6  UNL     1     -33.314   4.437   4.927  1.00 20.00    -0.190 F 
HETATM    3  F7  UNL     1     -35.292   4.687   4.047  1.00 20.00    -0.190 F 
ENDROOT
BRANCH   1   4
HETATM    4  C1  UNL     1     -34.300   6.550   5.051  1.00 20.00     0.434 C 
HETATM    5  F4  UNL     1     -33.098   7.136   5.279  1.00 20.00    -0.207 F 
HETATM    6  F5  UNL     1     -34.818   6.235   6.263  1.00 20.00    -0.207 F 
ENDBRANCH   1   4
BRANCH   1   7
HETATM    7  C3  UNL     1     -33.465   5.556   2.885  1.00 20.00     0.460 C 
HETATM    8  F8  UNL     1     -32.250   6.128   3.028  1.00 20.00    -0.165 F 
HETATM    9  F9  UNL     1     -34.226   6.385   2.139  1.00 20.00    -0.165 F 
HETATM   10  F10 UNL     1     -33.300   4.409   2.193  1.00 20.00    -0.165 F 
ENDBRANCH   1   7
TORSDOF 2
