REMARK  0 active torsions:
REMARK  status: ('A' for Active; 'I' for Inactive)
ROOT
HETATM    1  C1  UNL     1     -34.277   6.240   6.504  1.00 20.00    -0.030 A 
HETATM    2  C2  UNL     1     -34.955   5.190   6.029  1.00 20.00    -0.030 A 
HETATM    3  C3  UNL     1     -33.404   7.116   5.659  1.00 20.00     0.036 A 
HETATM    4  C4  UNL     1     -34.922   4.761   4.594  1.00 20.00     0.036 A 
HETATM    5  C5  UNL     1     -34.730   7.071   3.430  1.00 20.00     0.020 A 
HETATM    6  C6  UNL     1     -33.418   6.872   4.159  1.00 20.00    -0.032 A 
HETATM    7  C7  UNL     1     -34.195   5.667   3.614  1.00 20.00    -0.032 A 
HETATM    8  C8  UNL     1     -32.165   7.348   3.466  1.00 20.00     0.016 C 
HETATM    9  C9  UNL     1     -33.715   4.945   2.379  1.00 20.00     0.016 C 
ENDROOT
TORSDOF 0
