REMARK  4 active torsions:
REMARK  status: ('A' for Active; 'I' for Inactive)
REMARK    1  A    between atoms: C2_2  and  C8_8 
REMARK    2  A    between atoms: C3_3  and  C9_9 
REMARK    3  A    between atoms: C8_8  and  C9_9 
REMARK    4  A    between atoms: C9_9  and  C10_10 
ROOT
HETATM    1  C1  UNL     1     -33.103   8.187   1.291  1.00 20.00    -0.111 C 
HETATM    2  C2  UNL     1     -32.729   7.697   2.322  1.00 20.00    -0.106 C 
HETATM    3  C4  UNL     1     -33.562   8.782   0.037  1.00 20.00     0.112 C 
ENDROOT
BRANCH   2   4
HETATM    4  C8  UNL     1     -32.269   7.097   3.584  1.00 20.00     0.106 C 
BRANCH   4   5
HETATM    5  C9  UNL     1     -33.357   6.279   4.306  1.00 20.00     0.069 C 
BRANCH   5   6
HETATM    6  C3  UNL     1     -34.202   7.229   5.163  1.00 20.00     0.128 C 
HETATM    7  C5  UNL     1     -35.012   8.268   4.430  1.00 20.00     0.091 C 
HETATM    8  O11 UNL     1     -34.248   7.143   6.391  1.00 20.00    -0.298 OA
ENDBRANCH   5   6
BRANCH   5   9
HETATM    9  C10 UNL     1     -34.250   5.403   3.385  1.00 20.00    -0.011 C 
HETATM   10  C6  UNL     1     -35.248   4.580   4.213  1.00 20.00     0.010 C 
HETATM   11  C7  UNL     1     -33.430   4.444   2.515  1.00 20.00     0.010 C 
ENDBRANCH   5   9
ENDBRANCH   4   5
ENDBRANCH   2   4
TORSDOF 4
