REMARK  4 active torsions:
REMARK  status: ('A' for Active; 'I' for Inactive)
REMARK    1  A    between atoms: C2_2  and  C8_8 
REMARK    2  A    between atoms: C3_3  and  C9_9 
REMARK    3  A    between atoms: C8_8  and  C9_9 
REMARK    4  A    between atoms: C9_9  and  C10_10 
ROOT
HETATM    1  C9  UNL     1     -33.495   6.791   3.210  1.00 20.00     0.062 C 
ENDROOT
BRANCH   1   2
HETATM    2  C3  UNL     1     -34.347   5.553   3.513  1.00 20.00     0.127 C 
HETATM    3  C5  UNL     1     -33.643   4.220   3.474  1.00 20.00     0.091 C 
HETATM    4  O11 UNL     1     -35.552   5.623   3.755  1.00 20.00    -0.298 OA
ENDBRANCH   1   2
BRANCH   1   5
HETATM    5  C8  UNL     1     -33.998   7.514   1.942  1.00 20.00     0.045 C 
BRANCH   5   6
HETATM    6  C2  UNL     1     -32.938   8.353   1.257  1.00 20.00    -0.092 C 
HETATM    7  C1  UNL     1     -33.069   9.683   1.130  1.00 20.00     0.014 C 
HETATM    8  C4  UNL     1     -31.754   7.629   0.683  1.00 20.00     0.042 C 
ENDBRANCH   5   6
ENDBRANCH   1   5
BRANCH   1   9
HETATM    9  C10 UNL     1     -33.430   7.690   4.473  1.00 20.00    -0.011 C 
HETATM   10  C6  UNL     1     -32.283   8.702   4.375  1.00 20.00     0.010 C 
HETATM   11  C7  UNL     1     -33.317   6.909   5.786  1.00 20.00     0.010 C 
ENDBRANCH   1   9
TORSDOF 4
