REMARK  6 active torsions:
REMARK  status: ('A' for Active; 'I' for Inactive)
REMARK    1  A    between atoms: C1_1  and  C10_10 
REMARK    2  A    between atoms: C7_7  and  C8_8 
REMARK    3  A    between atoms: C8_8  and  C12_12 
REMARK    4  A    between atoms: C9_9  and  C10_10 
REMARK    5  A    between atoms: C9_9  and  C12_12 
REMARK    6  A    between atoms: C10_10  and  C11_11 
ROOT
HETATM    1  C10 UNL     1     -34.458   5.909   3.811  1.00 20.00     0.058 C 
ENDROOT
BRANCH   1   2
HETATM    2  C1  UNL     1     -34.194   6.239   5.282  1.00 20.00     0.127 C 
HETATM    3  C2  UNL     1     -33.210   5.358   6.010  1.00 20.00     0.091 C 
HETATM    4  O13 UNL     1     -34.734   7.187   5.851  1.00 20.00    -0.298 OA
ENDBRANCH   1   2
BRANCH   1   5
HETATM    5  C9  UNL     1     -34.022   7.091   2.918  1.00 20.00     0.016 C 
BRANCH   5   6
HETATM    6  C12 UNL     1     -32.506   7.156   2.599  1.00 20.00    -0.018 C 
HETATM    7  C6  UNL     1     -31.784   7.818   3.780  1.00 20.00     0.010 C 
BRANCH   6   8
HETATM    8  C8  UNL     1     -32.229   7.904   1.277  1.00 20.00     0.004 C 
BRANCH   8   9
HETATM    9  C7  UNL     1     -32.699   9.362   1.220  1.00 20.00    -0.004 C 
HETATM   10  C3  UNL     1     -32.463  10.023  -0.129  1.00 20.00     0.005 C 
ENDBRANCH   8   9
ENDBRANCH   6   8
ENDBRANCH   5   6
ENDBRANCH   1   5
BRANCH   1  11
HETATM   11  C11 UNL     1     -35.932   5.489   3.557  1.00 20.00    -0.012 C 
HETATM   12  C4  UNL     1     -36.285   4.192   4.292  1.00 20.00     0.010 C 
HETATM   13  C5  UNL     1     -36.973   6.564   3.880  1.00 20.00     0.010 C 
ENDBRANCH   1  11
TORSDOF 6
