REMARK  2 active torsions:
REMARK  status: ('A' for Active; 'I' for Inactive)
REMARK    1  A    between atoms: C3_3  and  C8_8 
REMARK    2  A    between atoms: C4_4  and  C7_7 
ROOT
HETATM    1  C1  UNL     1     -34.464   2.369   4.528  1.00 20.00     0.065 C 
HETATM    2  C8  UNL     1     -33.580   2.936   3.491  1.00 20.00     0.183 C 
HETATM    3  N9  UNL     1     -35.161   1.933   5.347  1.00 20.00    -0.197 NA
ENDROOT
BRANCH   2   4
HETATM    4  C3  UNL     1     -33.652   4.411   3.478  1.00 20.00     0.055 A 
HETATM    5  C2  UNL     1     -34.430   5.187   4.311  1.00 20.00     0.079 A 
HETATM    6  S11 UNL     1     -34.194   6.845   3.941  1.00 20.00    -0.084 SA
HETATM    7  C4  UNL     1     -33.086   6.387   2.713  1.00 20.00     0.079 A 
HETATM    8  N10 UNL     1     -32.880   5.097   2.561  1.00 20.00    -0.249 NA
BRANCH   7   9
HETATM    9  C7  UNL     1     -32.371   7.430   1.837  1.00 20.00     0.045 A 
HETATM   10  C5  UNL     1     -33.030   8.774   1.631  1.00 20.00     0.012 A 
HETATM   11  C6  UNL     1     -32.980   7.793   0.502  1.00 20.00     0.012 A 
ENDBRANCH   7   9
ENDBRANCH   2   4
TORSDOF 2
