REMARK  2 active torsions:
REMARK  status: ('A' for Active; 'I' for Inactive)
REMARK    1  A    between atoms: C5_5  and  C6_6 
REMARK    2  A    between atoms: C5_5  and  C7_7 
ROOT
HETATM    1  C1  UNL     1     -32.940   7.642   1.742  1.00 20.00     0.079 C 
HETATM    2  C6  UNL     1     -33.236   7.161   3.096  1.00 20.00     0.189 C 
HETATM    3  N8  UNL     1     -32.710   8.021   0.669  1.00 20.00    -0.196 NA
HETATM    4 CL9  UNL     1     -31.843   7.666   4.114  1.00 20.00    -0.109 Cl
ENDROOT
BRANCH   2   5
HETATM    5  C5  UNL     1     -33.385   5.634   3.177  1.00 20.00     0.043 C 
BRANCH   5   6
HETATM    6  C7  UNL     1     -34.238   5.058   4.347  1.00 20.00    -0.049 C 
HETATM    7  C2  UNL     1     -33.618   5.340   5.723  1.00 20.00     0.014 C 
HETATM    8  C3  UNL     1     -35.670   5.621   4.316  1.00 20.00     0.014 C 
HETATM    9  C4  UNL     1     -34.318   3.527   4.162  1.00 20.00     0.014 C 
ENDBRANCH   5   6
ENDBRANCH   2   5
TORSDOF 2
