REMARK  1 active torsions:
REMARK  status: ('A' for Active; 'I' for Inactive)
REMARK    1  A    between atoms: C8_8  and  N10_10 
ROOT
HETATM    1  C1  UNL     1     -34.681   5.151   5.238  1.00 20.00     0.065 C 
HETATM    2  C4  UNL     1     -33.825   4.553   2.975  1.00 20.00     0.051 C 
HETATM    3  C5  UNL     1     -32.875   5.488   2.235  1.00 20.00     0.274 C 
HETATM    4  C6  UNL     1     -34.212   6.881   3.522  1.00 20.00     0.292 C 
HETATM    5  C7  UNL     1     -34.725   5.471   3.807  1.00 20.00     0.122 C 
HETATM    6  N9  UNL     1     -34.645   4.898   6.370  1.00 20.00    -0.197 NA
HETATM    7  N10 UNL     1     -33.612   6.752   2.192  1.00 20.00     0.094 N 
ENDROOT
BRANCH   7   8
HETATM    8  C8  UNL     1     -32.766   7.905   1.821  1.00 20.00     0.223 A 
HETATM    9  C2  UNL     1     -32.420   8.163   0.381  1.00 20.00     0.038 A 
HETATM   10  C3  UNL     1     -33.356   9.087   1.103  1.00 20.00     0.038 A 
ENDBRANCH   7   8
TORSDOF 1
