REMARK  1 active torsions:
REMARK  status: ('A' for Active; 'I' for Inactive)
REMARK    1  A    between atoms: C8_8  and  N10_10 
ROOT
HETATM    1  C1  UNL     1     -34.354   5.493   5.463  1.00 20.00     0.065 C 
HETATM    2  C4  UNL     1     -33.607   4.810   3.198  1.00 20.00     0.051 C 
HETATM    3  C5  UNL     1     -33.106   5.728   2.096  1.00 20.00     0.274 C 
HETATM    4  C6  UNL     1     -32.935   6.981   4.057  1.00 20.00     0.292 C 
HETATM    5  C7  UNL     1     -33.254   5.546   4.492  1.00 20.00     0.122 C 
HETATM    6  N9  UNL     1     -35.223   5.451   6.230  1.00 20.00    -0.197 NA
HETATM    7  N10 UNL     1     -33.369   7.052   2.657  1.00 20.00     0.094 N 
ENDROOT
BRANCH   7   8
HETATM    8  C8  UNL     1     -32.725   8.145   1.900  1.00 20.00     0.223 A 
HETATM    9  C2  UNL     1     -32.690   8.113   0.396  1.00 20.00     0.038 A 
HETATM   10  C3  UNL     1     -33.554   9.116   1.104  1.00 20.00     0.038 A 
ENDBRANCH   7   8
TORSDOF 1
