REMARK  1 active torsions:
REMARK  status: ('A' for Active; 'I' for Inactive)
REMARK    1  A    between atoms: C3_3  and  C7_7 
ROOT
HETATM    1  C1  UNL     1     -32.200   7.472   3.452  1.00 20.00     0.304 C 
HETATM    2  C2  UNL     1     -32.773   6.937   2.153  1.00 20.00     0.148 C 
HETATM    3  C3  UNL     1     -34.227   6.519   3.864  1.00 20.00     0.360 C 
HETATM    4  C4  UNL     1     -32.645   7.903   0.992  1.00 20.00     0.041 C 
HETATM    5  N8  UNL     1     -32.881   6.630   4.427  1.00 20.00     0.115 N 
HETATM    6  O9  UNL     1     -34.159   6.697   2.439  1.00 20.00    -0.350 OA
HETATM    7  H24 UNL     1     -32.440   5.710   4.426  1.00 20.00     0.319 HD
ENDROOT
BRANCH   3   8
HETATM    8  C7  UNL     1     -34.831   5.160   4.173  1.00 20.00     0.036 C 
HETATM    9  C5  UNL     1     -33.957   4.037   3.614  1.00 20.00     0.014 C 
HETATM   10  C6  UNL     1     -35.027   4.983   5.679  1.00 20.00     0.014 C 
ENDBRANCH   3   8
TORSDOF 1
