REMARK  1 active torsions:
REMARK  status: ('A' for Active; 'I' for Inactive)
REMARK    1  A    between atoms: C2_2  and  C7_7 
ROOT
HETATM    1  C1  UNL     1     -33.525   4.395   3.947  1.00 20.00     0.310 C 
HETATM    2  C2  UNL     1     -32.842   6.482   3.362  1.00 20.00     0.356 C 
HETATM    3  C3  UNL     1     -34.302   5.409   4.782  1.00 20.00     0.083 C 
HETATM    4  C4  UNL     1     -34.247   5.083   6.271  1.00 20.00     0.047 C 
HETATM    5  C5  UNL     1     -35.757   5.565   4.326  1.00 20.00     0.047 C 
HETATM    6  N8  UNL     1     -33.128   5.169   2.770  1.00 20.00     0.115 N 
HETATM    7  O9  UNL     1     -33.623   6.657   4.555  1.00 20.00    -0.345 OA
HETATM    8  H24 UNL     1     -32.293   4.775   2.341  1.00 20.00     0.319 HD
ENDROOT
BRANCH   2   9
HETATM    9  C7  UNL     1     -33.139   7.618   2.398  1.00 20.00     0.059 C 
HETATM   10  C6  UNL     1     -32.291   7.546   1.167  1.00 20.00     0.009 C 
ENDBRANCH   2   9
TORSDOF 1
