REMARK  0 active torsions:
REMARK  status: ('A' for Active; 'I' for Inactive)
ROOT
HETATM    1  C1  UNL     1     -32.454   8.012   0.088  1.00 20.00     0.107 C 
HETATM    2  C2  UNL     1     -33.071   6.068   1.507  1.00 20.00     0.038 A 
HETATM    3  C3  UNL     1     -32.786   7.406   1.333  1.00 20.00     0.086 A 
HETATM    4  C4  UNL     1     -33.367   5.753   2.868  1.00 20.00    -0.043 A 
HETATM    5  C5  UNL     1     -33.286   6.874   3.672  1.00 20.00    -0.010 A 
HETATM    6  C6  UNL     1     -33.700   4.401   3.417  1.00 20.00     0.040 C 
HETATM    7  C7  UNL     1     -33.562   6.898   5.143  1.00 20.00     0.046 C 
HETATM    8  C8  UNL     1     -34.325   4.493   4.817  1.00 20.00     0.005 C 
HETATM    9  C9  UNL     1     -33.557   5.472   5.717  1.00 20.00     0.005 C 
HETATM   10  N10 UNL     1     -32.184   8.507  -0.927  1.00 20.00    -0.191 NA
HETATM   11  S11 UNL     1     -32.873   8.279   2.804  1.00 20.00    -0.083 SA
ENDROOT
TORSDOF 0
