REMARK  1 active torsions:
REMARK  status: ('A' for Active; 'I' for Inactive)
REMARK    1  A    between atoms: C3_3  and  C5_5 
ROOT
HETATM    1  C1  UNL     1     -33.519   7.177   3.122  1.00 20.00     0.030 A 
HETATM    2  C2  UNL     1     -33.989   6.313   4.132  1.00 20.00    -0.044 A 
HETATM    3  C3  UNL     1     -33.022   6.449   2.052  1.00 20.00     0.043 A 
HETATM    4  C4  UNL     1     -33.837   4.995   3.800  1.00 20.00    -0.010 A 
HETATM    5  C6  UNL     1     -34.613   6.463   5.469  1.00 20.00     0.040 C 
HETATM    6  C7  UNL     1     -34.320   4.053   4.836  1.00 20.00     0.047 C 
HETATM    7  C8  UNL     1     -34.497   5.018   6.050  1.00 20.00     0.010 C 
HETATM    8  S10 UNL     1     -33.142   4.740   2.301  1.00 20.00    -0.091 SA
ENDROOT
BRANCH   3   9
HETATM    9  C5  UNL     1     -32.455   6.926   0.832  1.00 20.00     0.277 C 
HETATM   10  O9  UNL     1     -32.321   8.134   0.547  1.00 20.00    -0.301 OA
ENDBRANCH   3   9
TORSDOF 1
