REMARK  2 active torsions:
REMARK  status: ('A' for Active; 'I' for Inactive)
REMARK    1  A    between atoms: C1_1  and  C9_9 
REMARK    2  A    between atoms: C8_8  and  C9_9 
ROOT
HETATM    1  C2  UNL     1     -34.373   4.297   5.114  1.00 20.00     0.005 C 
HETATM    2  C3  UNL     1     -33.872   4.151   3.669  1.00 20.00     0.005 C 
HETATM    3  C4  UNL     1     -35.412   5.953   3.756  1.00 20.00     0.009 C 
HETATM    4  C5  UNL     1     -33.639   6.695   5.157  1.00 20.00     0.010 C 
HETATM    5  C6  UNL     1     -34.858   5.755   5.166  1.00 20.00    -0.014 C 
HETATM    6  C7  UNL     1     -34.096   5.557   3.082  1.00 20.00    -0.010 C 
HETATM    7  C8  UNL     1     -33.074   6.522   3.730  1.00 20.00    -0.004 C 
ENDROOT
BRANCH   7   8
HETATM    8  C9  UNL     1     -32.960   7.849   2.989  1.00 20.00     0.074 C 
BRANCH   8   9
HETATM    9  C1  UNL     1     -32.455   7.679   1.581  1.00 20.00     0.231 C 
HETATM   10  O10 UNL     1     -33.056   8.026   0.570  1.00 20.00    -0.307 OA
ENDBRANCH   8   9
ENDBRANCH   7   8
TORSDOF 2
