REMARK  2 active torsions:
REMARK  status: ('A' for Active; 'I' for Inactive)
REMARK    1  A    between atoms: C1_1  and  C3_3 
REMARK    2  A    between atoms: C3_3  and  C5_5 
ROOT
HETATM    1  C3  UNL     1     -33.560   5.619   2.689  1.00 20.00     0.168 C 
HETATM    2  O6  UNL     1     -33.391   4.438   2.398  1.00 20.00    -0.292 OA
ENDROOT
BRANCH   1   3
HETATM    3  C1  UNL     1     -32.958   6.713   1.873  1.00 20.00     0.063 C 
HETATM    4  C2  UNL     1     -33.549   7.908   1.813  1.00 20.00     0.088 C 
HETATM    5 CL7  UNL     1     -32.911   9.207   0.893  1.00 20.00    -0.097 Cl
ENDBRANCH   1   3
BRANCH   1   6
HETATM    6  C5  UNL     1     -34.349   6.062   3.910  1.00 20.00     0.152 C 
HETATM    7  C4  UNL     1     -34.849   4.859   4.690  1.00 20.00     0.035 C 
HETATM    8 CL8  UNL     1     -33.293   7.064   4.939  1.00 20.00    -0.117 Cl
ENDBRANCH   1   6
TORSDOF 2
