REMARK  2 active torsions:
REMARK  status: ('A' for Active; 'I' for Inactive)
REMARK    1  A    between atoms: C4_4  and  C6_6 
REMARK    2  A    between atoms: C6_6  and  N7_7 
ROOT
HETATM    1  C1  UNL     1     -33.328   6.961   4.792  1.00 20.00     0.332 C 
HETATM    2  N7  UNL     1     -32.571   7.188   3.931  1.00 20.00    -0.242 NA
HETATM    3  O8  UNL     1     -34.079   6.738   5.669  1.00 20.00    -0.260 OA
ENDROOT
BRANCH   2   4
HETATM    4  C6  UNL     1     -33.080   6.845   2.587  1.00 20.00     0.112 C 
HETATM    5  C5  UNL     1     -32.778   5.362   2.338  1.00 20.00     0.035 C 
BRANCH   4   6
HETATM    6  C4  UNL     1     -32.469   7.739   1.564  1.00 20.00     0.010 A 
HETATM    7  C2  UNL     1     -33.142   7.940   0.235  1.00 20.00     0.007 A 
HETATM    8  C3  UNL     1     -33.107   9.060   1.237  1.00 20.00     0.007 A 
ENDBRANCH   4   6
ENDBRANCH   2   4
TORSDOF 2
