REMARK  1 active torsions:
REMARK  status: ('A' for Active; 'I' for Inactive)
REMARK    1  A    between atoms: C11_11  and  N13_13 
ROOT
HETATM    1  C1  UNL     1     -33.234   8.680  -0.810  1.00 20.00     0.086 C 
HETATM    2  C11 UNL     1     -32.355   8.235   0.268  1.00 20.00     0.357 C 
HETATM    3  N12 UNL     1     -33.930   9.036  -1.667  1.00 20.00    -0.196 NA
ENDROOT
BRANCH   2   4
HETATM    4  N13 UNL     1     -33.128   7.375   1.230  1.00 20.00    -0.059 N 
HETATM    5  C8  UNL     1     -32.221   6.453   2.005  1.00 20.00     0.236 C 
HETATM    6  C6  UNL     1     -33.066   5.517   2.859  1.00 20.00     0.037 C 
HETATM    7  C10 UNL     1     -34.004   6.271   3.816  1.00 20.00    -0.037 C 
HETATM    8  C4  UNL     1     -34.905   5.294   4.591  1.00 20.00     0.010 C 
HETATM    9  C5  UNL     1     -33.240   6.941   4.974  1.00 20.00     0.010 C 
HETATM   10  C7  UNL     1     -34.850   7.284   3.010  1.00 20.00     0.037 C 
HETATM   11  C2  UNL     1     -35.349   6.060   5.833  1.00 20.00     0.001 C 
HETATM   12  C3  UNL     1     -34.269   7.110   6.089  1.00 20.00     0.001 C 
HETATM   13  C9  UNL     1     -34.009   8.203   2.131  1.00 20.00     0.236 C 
HETATM   14  H32 UNL     1     -33.747   6.784   0.657  1.00 20.00     0.281 HD
ENDBRANCH   2   4
TORSDOF 1
