REMARK  3 active torsions:
REMARK  status: ('A' for Active; 'I' for Inactive)
REMARK    1  A    between atoms: C5_5  and  C7_7 
REMARK    2  A    between atoms: C6_6  and  C7_7 
REMARK    3  A    between atoms: C7_7  and  O8_8 
ROOT
HETATM    1  C1  UNL     1     -34.239   6.405   6.036  1.00 20.00     0.012 C 
HETATM    2  C2  UNL     1     -34.223   6.815   4.908  1.00 20.00    -0.115 C 
HETATM    3  C5  UNL     1     -34.214   7.320   3.524  1.00 20.00     0.130 C 
ENDROOT
BRANCH   3   4
HETATM    4  C7  UNL     1     -32.929   6.954   2.752  1.00 20.00     0.064 C 
HETATM    5  C4  UNL     1     -32.788   5.426   2.691  1.00 20.00     0.046 C 
BRANCH   4   6
HETATM    6  C6  UNL     1     -32.836   7.573   1.340  1.00 20.00     0.034 C 
HETATM    7  C3  UNL     1     -32.964   9.088   1.279  1.00 20.00     0.008 C 
ENDBRANCH   4   6
BRANCH   4   8
HETATM    8  O8  UNL     1     -31.799   7.445   3.488  1.00 20.00    -0.389 OA
HETATM    9  H20 UNL     1     -31.017   7.167   2.991  1.00 20.00     0.210 HD
ENDBRANCH   4   8
ENDBRANCH   3   4
TORSDOF 3
