REMARK  2 active torsions:
REMARK  status: ('A' for Active; 'I' for Inactive)
REMARK    1  A    between atoms: C9_9  and  C10_10 
REMARK    2  A    between atoms: C10_10  and  N12_12 
ROOT
HETATM    1  C1  UNL     1     -32.793   7.942   1.535  1.00 20.00     0.061 C 
HETATM    2  C9  UNL     1     -32.181   6.704   2.045  1.00 20.00     0.159 C 
HETATM    3  N11 UNL     1     -33.273   8.918   1.132  1.00 20.00    -0.197 NA
ENDROOT
BRANCH   2   4
HETATM    4  C10 UNL     1     -33.230   5.736   2.603  1.00 20.00     0.233 C 
HETATM    5  C8  UNL     1     -34.236   5.344   1.524  1.00 20.00     0.044 C 
BRANCH   4   6
HETATM    6  N12 UNL     1     -33.927   6.317   3.739  1.00 20.00     0.102 N 
HETATM    7  C4  UNL     1     -33.033   7.070   4.615  1.00 20.00     0.274 C 
HETATM    8  C2  UNL     1     -33.934   7.369   5.793  1.00 20.00     0.033 C 
HETATM    9  C3  UNL     1     -34.712   6.075   5.977  1.00 20.00     0.043 C 
HETATM   10  C5  UNL     1     -34.711   5.396   4.587  1.00 20.00     0.153 C 
HETATM   11  C6  UNL     1     -36.142   5.329   4.031  1.00 20.00     0.049 C 
HETATM   12  C7  UNL     1     -34.150   3.968   4.709  1.00 20.00     0.049 C 
ENDBRANCH   4   6
ENDBRANCH   2   4
TORSDOF 2
