REMARK  3 active torsions:
REMARK  status: ('A' for Active; 'I' for Inactive)
REMARK    1  A    between atoms: C6_6  and  N10_10 
REMARK    2  A    between atoms: C7_7  and  C8_8 
REMARK    3  A    between atoms: C8_8  and  N10_10 
ROOT
HETATM    1  C1  UNL     1     -33.329   8.669   0.703  1.00 20.00     0.013 C 
HETATM    2  C2  UNL     1     -32.996   7.667   1.274  1.00 20.00    -0.087 C 
HETATM    3  C6  UNL     1     -32.588   6.442   1.966  1.00 20.00     0.364 C 
ENDROOT
BRANCH   3   4
HETATM    4  N10 UNL     1     -32.707   6.604   3.420  1.00 20.00     0.100 N 
HETATM    5  C5  UNL     1     -31.849   7.708   3.870  1.00 20.00     0.311 C 
BRANCH   4   6
HETATM    6  C8  UNL     1     -34.083   6.825   3.807  1.00 20.00     0.232 C 
HETATM    7  C4  UNL     1     -34.185   6.928   5.326  1.00 20.00     0.044 C 
BRANCH   6   8
HETATM    8  C7  UNL     1     -34.989   5.709   3.274  1.00 20.00     0.159 C 
HETATM    9  C3  UNL     1     -34.630   4.397   3.836  1.00 20.00     0.061 C 
HETATM   10  N9  UNL     1     -34.348   3.361   4.277  1.00 20.00    -0.197 NA
ENDBRANCH   6   8
ENDBRANCH   4   6
ENDBRANCH   3   4
TORSDOF 3
