REMARK  0 active torsions:
REMARK  status: ('A' for Active; 'I' for Inactive)
ROOT
HETATM    1  C1  UNL     1     -34.062   6.285   6.259  1.00 20.00     0.006 C 
HETATM    2  C2  UNL     1     -34.412   4.812   6.496  1.00 20.00     0.006 C 
HETATM    3  C3  UNL     1     -33.777   6.418   4.765  1.00 20.00     0.079 C 
HETATM    4  C4  UNL     1     -34.321   4.129   5.134  1.00 20.00     0.079 C 
HETATM    5  C5  UNL     1     -34.540   5.263   4.158  1.00 20.00     0.243 C 
HETATM    6  F6  UNL     1     -34.107   4.960   2.922  1.00 20.00    -0.206 F 
HETATM    7  F7  UNL     1     -35.856   5.563   4.075  1.00 20.00    -0.206 F 
ENDROOT
TORSDOF 0
