REMARK  1 active torsions:
REMARK  status: ('A' for Active; 'I' for Inactive)
REMARK    1  A    between atoms: C2_2  and  C4_4 
ROOT
HETATM    1  C3  UNL     1     -33.308   5.427   5.352  1.00 20.00     0.102 C 
HETATM    2  C4  UNL     1     -34.469   4.985   4.417  1.00 20.00     0.035 C 
HETATM    3  C5  UNL     1     -33.631   6.898   5.020  1.00 20.00     0.295 C 
HETATM    4  C6  UNL     1     -34.350   6.405   3.723  1.00 20.00     0.254 C 
HETATM    5  C7  UNL     1     -34.146   3.747   3.587  1.00 20.00     0.025 C 
HETATM    6  F8  UNL     1     -32.560   7.703   4.841  1.00 20.00    -0.201 F 
HETATM    7  F9  UNL     1     -34.435   7.524   5.911  1.00 20.00    -0.201 F 
HETATM    8  F10 UNL     1     -35.541   7.022   3.500  1.00 20.00    -0.218 F 
HETATM    9 CL11 UNL     1     -33.375   6.533   2.218  1.00 20.00    -0.075 Cl
ENDROOT
BRANCH   2  10
HETATM   10  C2  UNL     1     -35.768   4.797   5.133  1.00 20.00    -0.023 C 
HETATM   11  C1  UNL     1     -36.967   4.990   4.571  1.00 20.00     0.008 C 
ENDBRANCH   2  10
TORSDOF 1
