REMARK  0 active torsions:
REMARK  status: ('A' for Active; 'I' for Inactive)
ROOT
HETATM    1  C1  UNL     1     -33.157   4.664   5.306  1.00 20.00     0.059 C 
HETATM    2  C2  UNL     1     -32.793   4.543   4.020  1.00 20.00     0.059 C 
HETATM    3  C3  UNL     1     -34.070   5.834   5.482  1.00 20.00     0.332 C 
HETATM    4  C4  UNL     1     -33.422   5.618   3.195  1.00 20.00     0.332 C 
HETATM    5  C5  UNL     1     -34.599   5.996   4.071  1.00 20.00     0.379 C 
HETATM    6  F6  UNL     1     -35.071   5.647   6.365  1.00 20.00    -0.195 F 
HETATM    7  F7  UNL     1     -33.378   6.935   5.862  1.00 20.00    -0.195 F 
HETATM    8  F8  UNL     1     -32.580   6.669   3.046  1.00 20.00    -0.195 F 
HETATM    9  F9  UNL     1     -33.824   5.232   1.968  1.00 20.00    -0.195 F 
HETATM   10  F10 UNL     1     -35.077   7.223   3.820  1.00 20.00    -0.192 F 
HETATM   11  F11 UNL     1     -35.611   5.112   3.867  1.00 20.00    -0.192 F 
ENDROOT
TORSDOF 0
