REMARK  3 active torsions:
REMARK  status: ('A' for Active; 'I' for Inactive)
REMARK    1  A    between atoms: C2_2  and  C3_3 
REMARK    2  A    between atoms: C2_2  and  C4_4 
REMARK    3  A    between atoms: C3_3  and  N5_5 
ROOT
HETATM    1  C1  UNL     1     -32.854   7.918   1.811  1.00 20.00     0.332 C 
HETATM    2  N5  UNL     1     -32.995   7.122   2.663  1.00 20.00    -0.247 NA
HETATM    3  O6  UNL     1     -32.712   8.717   0.960  1.00 20.00    -0.260 OA
ENDROOT
BRANCH   2   4
HETATM    4  C3  UNL     1     -33.356   5.786   2.187  1.00 20.00     0.162 C 
BRANCH   4   5
HETATM    5  C2  UNL     1     -33.480   4.854   3.385  1.00 20.00     0.139 C 
BRANCH   5   6
HETATM    6  C4  UNL     1     -34.542   5.321   4.356  1.00 20.00     0.389 C 
HETATM    7  F7  UNL     1     -34.616   4.509   5.431  1.00 20.00    -0.171 F 
HETATM    8  F8  UNL     1     -34.264   6.566   4.800  1.00 20.00    -0.171 F 
HETATM    9  F9  UNL     1     -35.760   5.356   3.773  1.00 20.00    -0.171 F 
ENDBRANCH   5   6
ENDBRANCH   4   5
ENDBRANCH   2   4
TORSDOF 3
