REMARK  1 active torsions:
REMARK  status: ('A' for Active; 'I' for Inactive)
REMARK    1  A    between atoms: C2_2  and  C3_3 
ROOT
HETATM    1  C1  UNL     1     -34.643   5.314   6.038  1.00 20.00     0.071 C 
HETATM    2  C3  UNL     1     -34.378   5.374   4.540  1.00 20.00     0.187 C 
HETATM    3  F4  UNL     1     -35.571   5.523   3.900  1.00 20.00    -0.225 F 
HETATM    4 CL6  UNL     1     -33.384   6.821   4.185  1.00 20.00    -0.082 Cl
ENDROOT
BRANCH   2   5
HETATM    5  C2  UNL     1     -33.671   4.143   3.980  1.00 20.00     0.174 C 
HETATM    6 CL5  UNL     1     -33.342   4.293   2.234  1.00 20.00    -0.126 Cl
ENDBRANCH   2   5
TORSDOF 1
