REMARK  2 active torsions:
REMARK  status: ('A' for Active; 'I' for Inactive)
REMARK    1  A    between atoms: C1_1  and  C3_3 
REMARK    2  A    between atoms: C3_3  and  C4_4 
ROOT
HETATM    1  C1  UNL     1     -34.137   5.589   4.101  1.00 20.00     0.162 C 
HETATM    2  C2  UNL     1     -34.196   5.727   5.429  1.00 20.00     0.301 C 
HETATM    3  F5  UNL     1     -34.131   4.332   3.599  1.00 20.00    -0.205 F 
HETATM    4  F6  UNL     1     -34.231   4.645   6.234  1.00 20.00    -0.170 F 
HETATM    5  F7  UNL     1     -34.224   6.963   5.971  1.00 20.00    -0.170 F 
ENDROOT
BRANCH   1   6
HETATM    6  C3  UNL     1     -34.095   6.731   3.131  1.00 20.00     0.086 C 
BRANCH   6   7
HETATM    7  C4  UNL     1     -32.809   6.703   2.306  1.00 20.00     0.086 C 
HETATM    8  I8  UNL     1     -32.777   8.321   0.905  1.00 20.00    -0.090 I 
ENDBRANCH   6   7
ENDBRANCH   1   6
TORSDOF 2
