REMARK  0 active torsions:
REMARK  status: ('A' for Active; 'I' for Inactive)
ROOT
HETATM    1  C1  UNL     1     -33.241   6.078   3.334  1.00 20.00     0.219 C 
HETATM    2  C2  UNL     1     -33.869   6.088   4.517  1.00 20.00     0.153 C 
HETATM    3  F3  UNL     1     -33.421   5.026   2.500  1.00 20.00    -0.190 F 
HETATM    4 CL4  UNL     1     -32.197   7.345   2.796  1.00 20.00    -0.049 Cl
HETATM    5 CL5  UNL     1     -33.657   7.421   5.603  1.00 20.00    -0.067 Cl
HETATM    6 CL6  UNL     1     -34.914   4.818   5.051  1.00 20.00    -0.067 Cl
ENDROOT
TORSDOF 0
