REMARK  1 active torsions:
REMARK  status: ('A' for Active; 'I' for Inactive)
REMARK    1  A    between atoms: C1_1  and  C2_2 
ROOT
HETATM    1  C2  UNL     1     -34.174   5.663   4.754  1.00 20.00     0.294 C 
HETATM    2  F4  UNL     1     -35.308   5.342   4.076  1.00 20.00    -0.230 F 
HETATM    3 CL5  UNL     1     -34.569   5.910   6.465  1.00 20.00    -0.087 Cl
ENDROOT
BRANCH   1   4
HETATM    4  C1  UNL     1     -33.579   6.912   4.143  1.00 20.00     0.275 C 
HETATM    5  F3  UNL     1     -33.311   6.687   2.829  1.00 20.00    -0.251 F 
ENDBRANCH   1   4
TORSDOF 1
