REMARK  0 active torsions:
REMARK  status: ('A' for Active; 'I' for Inactive)
ROOT
HETATM    1  C1  UNL     1     -32.979   7.451   3.940  1.00 20.00    -0.011 C 
HETATM    2  C2  UNL     1     -32.894   6.768   2.789  1.00 20.00    -0.015 C 
HETATM    3  C3  UNL     1     -33.417   6.829   5.236  1.00 20.00     0.036 C 
HETATM    4  C4  UNL     1     -33.209   5.303   2.679  1.00 20.00     0.047 C 
HETATM    5  C5  UNL     1     -33.346   4.611   4.042  1.00 20.00     0.014 C 
HETATM    6  C6  UNL     1     -34.119   5.458   5.076  1.00 20.00    -0.044 C 
HETATM    7  C7  UNL     1     -34.123   4.729   6.431  1.00 20.00     0.015 C 
HETATM    8  C8  UNL     1     -35.583   5.652   4.634  1.00 20.00     0.015 C 
HETATM    9 BR9  UNL     1     -32.361   7.586   1.194  1.00 20.00    -0.056 Br
ENDROOT
TORSDOF 0
