REMARK  0 active torsions:
REMARK  status: ('A' for Active; 'I' for Inactive)
ROOT
HETATM    1  C1  UNL     1     -33.382   7.170   5.589  1.00 20.00     0.101 C 
HETATM    2  C2  UNL     1     -32.953   6.946   3.353  1.00 20.00     0.055 C 
HETATM    3  C3  UNL     1     -34.816   5.665   4.176  1.00 20.00     0.145 C 
HETATM    4  C4  UNL     1     -32.692   7.677   2.256  1.00 20.00     0.112 C 
HETATM    5  C5  UNL     1     -34.619   6.308   5.531  1.00 20.00     0.092 C 
HETATM    6  C6  UNL     1     -33.566   5.557   3.317  1.00 20.00     0.105 C 
HETATM    7  C7  UNL     1     -34.532   5.230   6.602  1.00 20.00     0.023 C 
HETATM    8  C8  UNL     1     -33.889   4.974   1.942  1.00 20.00     0.025 C 
HETATM    9  N9  UNL     1     -32.615   7.463   4.585  1.00 20.00    -0.267 NA
HETATM   10  O10 UNL     1     -35.905   5.198   3.844  1.00 20.00    -0.296 OA
HETATM   11 CL11 UNL     1     -33.022   7.127   0.675  1.00 20.00    -0.095 Cl
ENDROOT
TORSDOF 0
