REMARK  1 active torsions:
REMARK  status: ('A' for Active; 'I' for Inactive)
REMARK    1  A    between atoms: C5_5  and  N7_7 
ROOT
HETATM    1  C1  UNL     1     -32.649   7.418   1.955  1.00 20.00     0.160 C 
HETATM    2  N7  UNL     1     -32.591   6.967   3.035  1.00 20.00    -0.237 NA
HETATM    3  S9  UNL     1     -32.704   8.058   0.498  1.00 20.00    -0.055 SA
ENDROOT
BRANCH   2   4
HETATM    4  C5  UNL     1     -33.396   5.754   3.235  1.00 20.00     0.152 C 
HETATM    5  C3  UNL     1     -33.222   5.284   4.681  1.00 20.00     0.065 C 
HETATM    6  C2  UNL     1     -34.543   4.621   4.987  1.00 20.00     0.031 C 
HETATM    7  C4  UNL     1     -35.507   5.492   4.219  1.00 20.00     0.171 C 
HETATM    8  O8  UNL     1     -34.819   5.909   3.033  1.00 20.00    -0.359 OA
HETATM    9  C6  UNL     1     -32.916   4.707   2.230  1.00 20.00     0.073 C 
ENDBRANCH   2   4
TORSDOF 1
