REMARK  0 active torsions:
REMARK  status: ('A' for Active; 'I' for Inactive)
ROOT
HETATM    1  C1  UNL     1     -32.487   7.249   3.399  1.00 20.00     0.009 C 
HETATM    2  C2  UNL     1     -34.907   7.336   2.728  1.00 20.00     0.009 C 
HETATM    3  C3  UNL     1     -33.525   5.316   2.188  1.00 20.00     0.013 C 
HETATM    4  C4  UNL     1     -32.897   5.099   4.609  1.00 20.00     0.014 C 
HETATM    5  C5  UNL     1     -35.322   5.186   3.936  1.00 20.00     0.014 C 
HETATM    6  C6  UNL     1     -33.507   6.848   2.319  1.00 20.00    -0.013 C 
HETATM    7  C7  UNL     1     -32.882   6.633   4.756  1.00 20.00    -0.009 C 
HETATM    8  C8  UNL     1     -35.309   6.720   4.083  1.00 20.00    -0.009 C 
HETATM    9  C9  UNL     1     -34.280   7.167   5.150  1.00 20.00    -0.010 C 
HETATM   10  C10 UNL     1     -33.922   4.667   3.534  1.00 20.00    -0.043 C 
HETATM   11  C11 UNL     1     -34.688   6.768   6.570  1.00 20.00     0.010 C 
HETATM   12  C12 UNL     1     -33.940   3.141   3.401  1.00 20.00     0.015 C 
ENDROOT
TORSDOF 0
