REMARK  1 active torsions:
REMARK  status: ('A' for Active; 'I' for Inactive)
REMARK    1  A    between atoms: C3_3  and  C4_4 
ROOT
HETATM    1  C1  UNL     1     -33.819   6.598   5.605  1.00 20.00     0.175 C 
HETATM    2  C2  UNL     1     -34.905   4.957   4.992  1.00 20.00     0.175 C 
HETATM    3  C3  UNL     1     -34.424   6.209   4.251  1.00 20.00     0.047 C 
HETATM    4  O5  UNL     1     -34.516   5.517   6.270  1.00 20.00    -0.390 OA
ENDROOT
BRANCH   3   5
HETATM    5  C4  UNL     1     -33.454   5.993   3.110  1.00 20.00     0.123 C 
HETATM    6 CL6  UNL     1     -32.961   7.549   2.408  1.00 20.00    -0.130 Cl
ENDBRANCH   3   5
TORSDOF 1
