REMARK  2 active torsions:
REMARK  status: ('A' for Active; 'I' for Inactive)
REMARK    1  A    between atoms: C1_1  and  C5_5 
REMARK    2  A    between atoms: C5_5  and  C7_7 
ROOT
HETATM    1  C2  UNL     1     -32.843   8.128   2.042  1.00 20.00     0.002 C 
HETATM    2  C3  UNL     1     -32.097   6.826   2.381  1.00 20.00     0.020 C 
HETATM    3  C4  UNL     1     -34.120   7.487   2.612  1.00 20.00     0.020 C 
HETATM    4  C5  UNL     1     -33.221   6.493   3.413  1.00 20.00     0.048 C 
ENDROOT
BRANCH   4   5
HETATM    5  C1  UNL     1     -33.703   5.016   3.413  1.00 20.00     0.181 C 
HETATM    6  O8  UNL     1     -34.611   4.746   4.247  1.00 20.00    -0.647 OA
HETATM    7  O9  UNL     1     -33.123   4.269   2.576  1.00 20.00    -0.647 OA
ENDBRANCH   4   5
BRANCH   4   8
HETATM    8  C7  UNL     1     -32.904   6.967   4.833  1.00 20.00     0.016 C 
HETATM    9  C6  UNL     1     -34.100   6.885   5.725  1.00 20.00     0.006 C 
ENDBRANCH   4   8
TORSDOF 2
