REMARK  0 active torsions:
REMARK  status: ('A' for Active; 'I' for Inactive)
ROOT
HETATM    1  C1  UNL     1     -34.305   6.054   5.402  1.00 20.00    -0.054 C 
HETATM    2  C2  UNL     1     -33.975   5.843   4.113  1.00 20.00     0.091 C 
HETATM    3  C3  UNL     1     -34.890   4.955   6.250  1.00 20.00     0.046 C 
HETATM    4  C4  UNL     1     -34.149   7.366   6.119  1.00 20.00     0.046 C 
HETATM    5  C5  UNL     1     -33.353   6.837   3.187  1.00 20.00     0.082 C 
HETATM    6  F6  UNL     1     -34.194   4.608   3.597  1.00 20.00    -0.211 F 
ENDROOT
TORSDOF 0
