REMARK  2 active torsions:
REMARK  status: ('A' for Active; 'I' for Inactive)
REMARK    1  A    between atoms: C1_1  and  C3_3 
REMARK    2  A    between atoms: C4_4  and  O10_10 
ROOT
HETATM    1  C3  UNL     1     -33.350   6.527   1.833  1.00 20.00     0.048 A 
HETATM    2  C4  UNL     1     -32.705   5.423   2.632  1.00 20.00     0.135 A 
HETATM    3  C5  UNL     1     -33.155   6.690   3.331  1.00 20.00    -0.012 A 
HETATM    4  C8  UNL     1     -34.393   6.657   4.193  1.00 20.00     0.018 C 
HETATM    5  C9  UNL     1     -32.076   7.599   3.868  1.00 20.00     0.018 C 
ENDROOT
BRANCH   1   6
HETATM    6  C1  UNL     1     -32.539   7.280   0.886  1.00 20.00    -0.017 C 
HETATM    7  C2  UNL     1     -32.769   8.517   0.405  1.00 20.00    -0.091 C 
HETATM    8  C6  UNL     1     -31.826   9.157  -0.575  1.00 20.00     0.042 C 
HETATM    9  C7  UNL     1     -33.955   9.355   0.788  1.00 20.00     0.042 C 
ENDBRANCH   1   6
BRANCH   2  10
HETATM   10  O10 UNL     1     -33.504   4.244   2.828  1.00 20.00    -0.394 OA
HETATM   11  H26 UNL     1     -33.696   3.906   1.944  1.00 20.00     0.210 HD
ENDBRANCH   2  10
TORSDOF 2
