REMARK  1 active torsions:
REMARK  status: ('A' for Active; 'I' for Inactive)
REMARK    1  A    between atoms: C2_2  and  C4_4 
ROOT
HETATM    1  C1  UNL     1     -33.114   6.370   2.727  1.00 20.00     0.116 C 
HETATM    2  C2  UNL     1     -33.318   6.576   4.040  1.00 20.00     0.151 C 
HETATM    3  C3  UNL     1     -32.214   7.150   1.822  1.00 20.00     0.084 C 
HETATM    4  F5  UNL     1     -33.787   5.350   2.139  1.00 20.00    -0.209 F 
HETATM    5 CL9  UNL     1     -32.517   7.848   4.907  1.00 20.00    -0.076 Cl
ENDROOT
BRANCH   2   6
HETATM    6  C4  UNL     1     -34.234   5.760   4.894  1.00 20.00     0.430 C 
HETATM    7  F6  UNL     1     -34.241   6.195   6.181  1.00 20.00    -0.165 F 
HETATM    8  F7  UNL     1     -35.526   5.779   4.477  1.00 20.00    -0.165 F 
HETATM    9  F8  UNL     1     -33.861   4.453   4.925  1.00 20.00    -0.165 F 
ENDBRANCH   2   6
TORSDOF 1
