REMARK  1 active torsions:
REMARK  status: ('A' for Active; 'I' for Inactive)
REMARK    1  A    between atoms: C1_1  and  C3_3 
ROOT
HETATM    1  C1  UNL     1     -33.465   6.754   4.363  1.00 20.00     0.249 C 
HETATM    2  C2  UNL     1     -33.113   6.382   3.126  1.00 20.00     0.229 C 
HETATM    3  F4  UNL     1     -32.967   7.913   4.856  1.00 20.00    -0.197 F 
HETATM    4  F5  UNL     1     -32.278   7.155   2.398  1.00 20.00    -0.189 F 
HETATM    5 CL9  UNL     1     -33.702   4.922   2.421  1.00 20.00    -0.049 Cl
ENDROOT
BRANCH   1   6
HETATM    6  C3  UNL     1     -34.376   5.983   5.253  1.00 20.00     0.448 C 
HETATM    7  F6  UNL     1     -34.545   6.610   6.445  1.00 20.00    -0.164 F 
HETATM    8  F7  UNL     1     -35.614   5.789   4.734  1.00 20.00    -0.164 F 
HETATM    9  F8  UNL     1     -33.870   4.753   5.527  1.00 20.00    -0.164 F 
ENDBRANCH   1   6
TORSDOF 1
