REMARK  0 active torsions:
REMARK  status: ('A' for Active; 'I' for Inactive)
ROOT
HETATM    1  C1  UNL     1     -33.898   6.606   4.737  1.00 20.00     0.238 C 
HETATM    2  C2  UNL     1     -34.343   5.365   4.924  1.00 20.00     0.189 C 
HETATM    3  F3  UNL     1     -33.197   6.944   3.638  1.00 20.00    -0.216 F 
HETATM    4  F4  UNL     1     -35.040   5.092   6.050  1.00 20.00    -0.196 F 
HETATM    5 BR5  UNL     1     -34.049   3.991   3.708  1.00 20.00    -0.015 Br
ENDROOT
TORSDOF 0
