REMARK  0 active torsions:
REMARK  status: ('A' for Active; 'I' for Inactive)
ROOT
HETATM    1  C1  UNL     1     -32.977   7.085   3.693  1.00 20.00     0.145 C 
HETATM    2  C2  UNL     1     -33.946   6.665   4.496  1.00 20.00    -0.034 C 
HETATM    3  C3  UNL     1     -34.197   6.700   5.951  1.00 20.00     0.038 C 
HETATM    4  C4  UNL     1     -34.767   5.285   6.173  1.00 20.00     0.007 C 
HETATM    5  C5  UNL     1     -34.491   4.488   4.880  1.00 20.00     0.034 C 
HETATM    6  C6  UNL     1     -34.602   5.543   3.799  1.00 20.00     0.161 C 
HETATM    7  N7  UNL     1     -32.912   6.327   2.548  1.00 20.00    -0.167 NA
HETATM    8  N8  UNL     1     -33.741   5.365   2.613  1.00 20.00    -0.183 NA
ENDROOT
TORSDOF 0
