REMARK  0 active torsions:
REMARK  status: ('A' for Active; 'I' for Inactive)
ROOT
HETATM    1  C1  UNL     1     -33.839   5.249   3.252  1.00 20.00     0.164 C 
HETATM    2  C2  UNL     1     -34.901   4.590   4.099  1.00 20.00     0.107 C 
HETATM    3  C3  UNL     1     -34.692   4.977   5.554  1.00 20.00     0.175 C 
HETATM    4  C4  UNL     1     -33.512   6.950   5.017  1.00 20.00     0.212 C 
HETATM    5  C5  UNL     1     -33.613   6.717   3.520  1.00 20.00     0.263 C 
HETATM    6  O6  UNL     1     -33.263   4.653   2.345  1.00 20.00    -0.295 OA
HETATM    7  O7  UNL     1     -34.640   6.399   5.697  1.00 20.00    -0.388 OA
HETATM    8  F8  UNL     1     -32.472   7.158   2.927  1.00 20.00    -0.239 F 
ENDROOT
TORSDOF 0
