REMARK  0 active torsions:
REMARK  status: ('A' for Active; 'I' for Inactive)
ROOT
HETATM    1  C1  UNL     1     -33.580   4.470   2.949  1.00 20.00     0.009 C 
HETATM    2  C2  UNL     1     -32.601   5.630   2.756  1.00 20.00     0.035 C 
HETATM    3  C3  UNL     1     -34.062   4.385   4.396  1.00 20.00     0.082 C 
HETATM    4  C4  UNL     1     -33.101   6.908   3.355  1.00 20.00     0.157 A 
HETATM    5  C5  UNL     1     -34.189   6.908   4.397  1.00 20.00     0.223 A 
HETATM    6  C6  UNL     1     -34.849   5.631   4.776  1.00 20.00     0.271 C 
HETATM    7  O7  UNL     1     -32.814   7.030   4.763  1.00 20.00    -0.369 OA
HETATM    8  F8  UNL     1     -36.066   5.582   4.170  1.00 20.00    -0.203 F 
HETATM    9  F9  UNL     1     -35.088   5.624   6.113  1.00 20.00    -0.203 F 
ENDROOT
TORSDOF 0
