REMARK  3 active torsions:
REMARK  status: ('A' for Active; 'I' for Inactive)
REMARK    1  A    between atoms: C3_3  and  C5_5 
REMARK    2  A    between atoms: C5_5  and  C6_6 
REMARK    3  A    between atoms: C6_6  and  S9_9 
ROOT
HETATM    1  C1  UNL     1     -34.407   6.326   6.118  1.00 20.00     0.179 C 
HETATM    2  C2  UNL     1     -34.221   4.882   5.688  1.00 20.00     0.103 C 
HETATM    3  C3  UNL     1     -33.524   6.756   4.021  1.00 20.00     0.183 C 
HETATM    4  O7  UNL     1     -33.454   7.124   5.405  1.00 20.00    -0.375 OA
HETATM    5  S8  UNL     1     -34.028   5.019   3.903  1.00 20.00    -0.135 SA
ENDROOT
BRANCH   3   6
HETATM    6  C5  UNL     1     -32.165   6.982   3.385  1.00 20.00     0.057 C 
BRANCH   6   7
HETATM    7  C6  UNL     1     -32.210   7.128   1.856  1.00 20.00     0.043 C 
HETATM    8  C4  UNL     1     -32.783   5.870   1.207  1.00 20.00     0.021 C 
BRANCH   7   9
HETATM    9  S9  UNL     1     -33.218   8.564   1.338  1.00 20.00    -0.178 SA
HETATM   10  H21 UNL     1     -32.985   8.418   0.028  1.00 20.00     0.102 HD
ENDBRANCH   7   9
ENDBRANCH   6   7
ENDBRANCH   3   6
TORSDOF 3
