REMARK  1 active torsions:
REMARK  status: ('A' for Active; 'I' for Inactive)
REMARK    1  A    between atoms: C6_6  and  C7_7 
ROOT
HETATM    1  C1  UNL     1     -34.163   6.767   5.108  1.00 20.00     0.005 C 
HETATM    2  C2  UNL     1     -33.472   6.037   3.951  1.00 20.00     0.011 C 
HETATM    3  C3  UNL     1     -35.846   5.428   3.940  1.00 20.00     0.015 C 
HETATM    4  C4  UNL     1     -34.660   4.380   5.311  1.00 20.00     0.015 C 
HETATM    5  C5  UNL     1     -35.314   5.796   5.360  1.00 20.00    -0.013 C 
HETATM    6  C6  UNL     1     -34.405   4.826   3.832  1.00 20.00    -0.031 C 
ENDROOT
BRANCH   6   7
HETATM    7  C7  UNL     1     -34.070   3.818   2.772  1.00 20.00     0.094 C 
HETATM    8 BR8  UNL     1     -35.343   2.344   2.821  1.00 20.00    -0.096 Br
ENDBRANCH   6   7
TORSDOF 1
