REMARK  1 active torsions:
REMARK  status: ('A' for Active; 'I' for Inactive)
REMARK    1  A    between atoms: C1_1  and  C3_3 
ROOT
HETATM    1  C1  UNL     1     -33.641   6.841   3.949  1.00 20.00     0.143 C 
HETATM    2  C2  UNL     1     -33.273   6.492   2.711  1.00 20.00     0.190 C 
HETATM    3  F4  UNL     1     -33.507   5.240   2.259  1.00 20.00    -0.193 F 
HETATM    4 CL8  UNL     1     -32.497   7.619   1.662  1.00 20.00    -0.051 Cl
ENDROOT
BRANCH   1   5
HETATM    5  C3  UNL     1     -34.316   5.943   4.927  1.00 20.00     0.411 C 
HETATM    6  F5  UNL     1     -34.586   6.537   6.116  1.00 20.00    -0.167 F 
HETATM    7  F6  UNL     1     -33.557   4.851   5.198  1.00 20.00    -0.167 F 
HETATM    8  F7  UNL     1     -35.499   5.486   4.442  1.00 20.00    -0.167 F 
ENDBRANCH   1   5
TORSDOF 1
