REMARK  1 active torsions:
REMARK  status: ('A' for Active; 'I' for Inactive)
REMARK    1  A    between atoms: C2_2  and  C3_3 
ROOT
HETATM    1  C1  UNL     1     -32.963   6.890   3.296  1.00 20.00     0.018 C 
HETATM    2  C2  UNL     1     -33.797   5.944   3.746  1.00 20.00     0.188 C 
HETATM    3  C4  UNL     1     -32.467   6.966   1.888  1.00 20.00     0.039 C 
HETATM    4  F7  UNL     1     -34.230   4.988   2.892  1.00 20.00    -0.199 F 
ENDROOT
BRANCH   2   5
HETATM    5  C3  UNL     1     -34.286   5.898   5.203  1.00 20.00     0.238 C 
HETATM    6  O5  UNL     1     -33.832   6.828   5.931  1.00 20.00    -0.642 OA
HETATM    7  O6  UNL     1     -35.071   4.958   5.511  1.00 20.00    -0.642 OA
ENDBRANCH   2   5
TORSDOF 1
