REMARK  1 active torsions:
REMARK  status: ('A' for Active; 'I' for Inactive)
REMARK    1  A    between atoms: C3_3  and  C4_4 
ROOT
HETATM    1  C1  UNL     1     -34.542   4.954   3.581  1.00 20.00     0.149 A 
HETATM    2  C2  UNL     1     -34.226   5.629   4.741  1.00 20.00     0.093 A 
HETATM    3  C3  UNL     1     -33.101   6.382   2.748  1.00 20.00     0.089 A 
HETATM    4  N5  UNL     1     -33.898   5.384   2.437  1.00 20.00    -0.255 NA
HETATM    5  S6  UNL     1     -33.076   6.854   4.398  1.00 20.00    -0.060 SA
HETATM    6 CL7  UNL     1     -34.814   5.381   6.324  1.00 20.00    -0.075 Cl
ENDROOT
BRANCH   3   7
HETATM    7  C4  UNL     1     -32.245   7.103   1.781  1.00 20.00     0.181 C 
HETATM    8 CL8  UNL     1     -33.212   8.207   0.769  1.00 20.00    -0.123 Cl
ENDBRANCH   3   7
TORSDOF 1
