REMARK  0 active torsions:
REMARK  status: ('A' for Active; 'I' for Inactive)
ROOT
HETATM    1  C1  UNL     1     -33.259   7.852   3.042  1.00 20.00     0.052 A 
HETATM    2  C2  UNL     1     -33.409   5.321   2.041  1.00 20.00     0.126 A 
HETATM    3  C3  UNL     1     -33.585   6.804   3.907  1.00 20.00    -0.047 A 
HETATM    4  C4  UNL     1     -33.682   5.502   3.395  1.00 20.00    -0.034 A 
HETATM    5  C5  UNL     1     -33.018   7.558   1.710  1.00 20.00     0.126 A 
HETATM    6  C6  UNL     1     -33.884   7.103   5.354  1.00 20.00     0.039 C 
HETATM    7  C7  UNL     1     -34.005   4.321   4.268  1.00 20.00     0.040 C 
HETATM    8  C8  UNL     1     -33.849   5.860   6.243  1.00 20.00     0.005 C 
HETATM    9  C9  UNL     1     -34.633   4.720   5.603  1.00 20.00     0.005 C 
HETATM   10  N10 UNL     1     -33.082   6.316   1.186  1.00 20.00    -0.248 NA
HETATM   11 CL11 UNL     1     -32.608   8.792   0.590  1.00 20.00    -0.062 Cl
ENDROOT
TORSDOF 0
