REMARK  2 active torsions:
REMARK  status: ('A' for Active; 'I' for Inactive)
REMARK    1  A    between atoms: C5_5  and  C6_6 
REMARK    2  A    between atoms: C6_6  and  C7_7 
ROOT
HETATM    1  C1  UNL     1     -33.566   7.417   5.685  1.00 20.00     0.012 C 
HETATM    2  C6  UNL     1     -33.371   6.665   4.354  1.00 20.00     0.002 C 
ENDROOT
BRANCH   2   3
HETATM    3  C5  UNL     1     -33.651   7.614   3.168  1.00 20.00     0.119 C 
HETATM    4 CL8  UNL     1     -32.879   7.055   1.656  1.00 20.00    -0.130 Cl
ENDBRANCH   2   3
BRANCH   2   5
HETATM    5  C7  UNL     1     -34.210   5.331   4.270  1.00 20.00    -0.047 C 
HETATM    6  C2  UNL     1     -33.852   4.397   5.449  1.00 20.00     0.015 C 
HETATM    7  C3  UNL     1     -33.880   4.561   2.972  1.00 20.00     0.015 C 
HETATM    8  C4  UNL     1     -35.728   5.589   4.305  1.00 20.00     0.015 C 
ENDBRANCH   2   5
TORSDOF 2
