REMARK  2 active torsions:
REMARK  status: ('A' for Active; 'I' for Inactive)
REMARK    1  A    between atoms: C3_3  and  C4_4 
REMARK    2  A    between atoms: C3_3  and  C5_5 
ROOT
HETATM    1  C3  UNL     1     -33.577   6.490   4.433  1.00 20.00     0.157 C 
ENDROOT
BRANCH   1   2
HETATM    2  C4  UNL     1     -34.687   5.675   5.091  1.00 20.00     0.245 C 
HETATM    3  C1  UNL     1     -34.853   5.994   6.562  1.00 20.00     0.090 C 
HETATM    4  F6  UNL     1     -34.425   4.350   4.960  1.00 20.00    -0.207 F 
HETATM    5  F7  UNL     1     -35.865   5.907   4.460  1.00 20.00    -0.207 F 
ENDBRANCH   1   2
BRANCH   1   6
HETATM    6  C5  UNL     1     -33.430   6.177   2.948  1.00 20.00     0.245 C 
HETATM    7  C2  UNL     1     -32.343   6.996   2.282  1.00 20.00     0.090 C 
HETATM    8  F8  UNL     1     -33.147   4.860   2.780  1.00 20.00    -0.207 F 
HETATM    9  F9  UNL     1     -34.604   6.410   2.309  1.00 20.00    -0.207 F 
ENDBRANCH   1   6
TORSDOF 2
