REMARK  0 active torsions:
REMARK  status: ('A' for Active; 'I' for Inactive)
ROOT
HETATM    1  C1  UNL     1     -32.649   4.912   2.173  1.00 20.00     0.001 C 
HETATM    2  C2  UNL     1     -31.673   5.780   2.525  1.00 20.00     0.001 C 
HETATM    3  C3  UNL     1     -34.987   5.886   6.021  1.00 20.00     0.001 C 
HETATM    4  C4  UNL     1     -33.921   6.831   6.406  1.00 20.00     0.001 C 
HETATM    5  C5  UNL     1     -35.280   5.347   4.815  1.00 20.00     0.009 C 
HETATM    6  C6  UNL     1     -32.956   7.408   5.654  1.00 20.00     0.009 C 
HETATM    7  C7  UNL     1     -33.866   4.669   2.949  1.00 20.00     0.009 C 
HETATM    8  C8  UNL     1     -31.687   6.604   3.734  1.00 20.00     0.009 C 
HETATM    9  C9  UNL     1     -34.532   5.648   3.600  1.00 20.00    -0.039 C 
HETATM   10  C10 UNL     1     -32.810   7.177   4.221  1.00 20.00    -0.039 C 
HETATM   11  C11 UNL     1     -34.135   7.094   3.521  1.00 20.00     0.123 C 
HETATM   12 BR12 UNL     1     -34.167   7.855   1.733  1.00 20.00    -0.081 Br
ENDROOT
TORSDOF 0
