REMARK  2 active torsions:
REMARK  status: ('A' for Active; 'I' for Inactive)
REMARK    1  A    between atoms: C3_3  and  O10_10 
REMARK    2  A    between atoms: C8_8  and  O10_10 
ROOT
HETATM    1  C1  UNL     1     -32.623   7.240   4.705  1.00 20.00     0.069 C 
HETATM    2  C2  UNL     1     -33.477   6.288   5.572  1.00 20.00     0.173 C 
HETATM    3  C3  UNL     1     -33.629   7.069   3.544  1.00 20.00     0.134 C 
HETATM    4  C4  UNL     1     -34.173   5.784   4.257  1.00 20.00     0.008 C 
HETATM    5  C5  UNL     1     -35.698   5.669   4.198  1.00 20.00     0.020 C 
HETATM    6  C6  UNL     1     -33.534   4.472   3.770  1.00 20.00     0.020 C 
HETATM    7  O9  UNL     1     -34.315   6.984   6.464  1.00 20.00    -0.234 OA
ENDROOT
BRANCH   3   8
HETATM    8  O10 UNL     1     -33.064   6.888   2.233  1.00 20.00    -0.385 OA
BRANCH   8   9
HETATM    9  C8  UNL     1     -32.666   8.128   1.681  1.00 20.00     0.163 C 
HETATM   10  C7  UNL     1     -32.079   7.890   0.305  1.00 20.00     0.033 C 
ENDBRANCH   8   9
ENDBRANCH   3   8
TORSDOF 2
