REMARK  2 active torsions:
REMARK  status: ('A' for Active; 'I' for Inactive)
REMARK    1  A    between atoms: C2_2  and  C3_3 
REMARK    2  A    between atoms: C3_3  and  C7_7 
ROOT
HETATM    1  C3  UNL     1     -33.300   6.544   3.869  1.00 20.00     0.255 C 
HETATM    2  O8  UNL     1     -33.506   6.833   5.044  1.00 20.00    -0.283 OA
ENDROOT
BRANCH   1   3
HETATM    3  C2  UNL     1     -32.241   7.209   3.063  1.00 20.00     0.062 C 
HETATM    4  C1  UNL     1     -32.546   7.887   1.956  1.00 20.00    -0.076 C 
HETATM    5  C4  UNL     1     -31.716   8.653   0.948  1.00 20.00     0.034 C 
HETATM    6  C5  UNL     1     -33.848   8.167   1.238  1.00 20.00     0.034 C 
HETATM    7  C6  UNL     1     -33.059   9.317   0.577  1.00 20.00     0.009 C 
ENDBRANCH   1   3
BRANCH   1   8
HETATM    8  C7  UNL     1     -34.107   5.495   3.162  1.00 20.00     0.455 C 
HETATM    9  F9  UNL     1     -33.714   5.335   1.872  1.00 20.00    -0.163 F 
HETATM   10  F10 UNL     1     -33.999   4.281   3.760  1.00 20.00    -0.163 F 
HETATM   11  F11 UNL     1     -35.429   5.801   3.133  1.00 20.00    -0.163 F 
ENDBRANCH   1   8
TORSDOF 2
