REMARK  1 active torsions:
REMARK  status: ('A' for Active; 'I' for Inactive)
REMARK    1  A    between atoms: C4_4  and  C10_10 
ROOT
HETATM    1  C1  UNL     1     -34.477   6.120   4.420  1.00 20.00    -0.004 C 
HETATM    2  C2  UNL     1     -34.132   7.219   3.554  1.00 20.00     0.003 C 
HETATM    3  C3  UNL     1     -34.255   4.850   4.058  1.00 20.00    -0.026 C 
HETATM    4  C4  UNL     1     -33.428   7.037   2.424  1.00 20.00    -0.072 C 
HETATM    5  C5  UNL     1     -33.625   4.487   2.746  1.00 20.00     0.031 C 
HETATM    6  C6  UNL     1     -32.971   5.662   1.995  1.00 20.00     0.038 C 
ENDROOT
BRANCH   4   7
HETATM    7  C10 UNL     1     -33.035   8.180   1.537  1.00 20.00    -0.028 C 
HETATM    8  C7  UNL     1     -33.622   7.958   0.134  1.00 20.00     0.019 C 
HETATM    9  C8  UNL     1     -31.503   8.263   1.442  1.00 20.00     0.019 C 
HETATM   10  C9  UNL     1     -33.575   9.498   2.115  1.00 20.00     0.019 C 
ENDBRANCH   4   7
TORSDOF 1
