REMARK  1 active torsions:
REMARK  status: ('A' for Active; 'I' for Inactive)
REMARK    1  A    between atoms: C4_4  and  C9_9 
ROOT
HETATM    1  C1  UNL     1     -32.668   9.104   0.729  1.00 20.00     0.017 C 
HETATM    2  C2  UNL     1     -33.101   8.146   1.310  1.00 20.00    -0.089 C 
HETATM    3  C3  UNL     1     -33.629   7.007   1.981  1.00 20.00     0.066 C 
HETATM    4  C4  UNL     1     -33.269   6.612   3.222  1.00 20.00    -0.068 C 
HETATM    5  C5  UNL     1     -32.227   7.372   4.022  1.00 20.00     0.044 C 
ENDROOT
BRANCH   4   6
HETATM    6  C9  UNL     1     -33.884   5.367   3.917  1.00 20.00    -0.028 C 
HETATM    7  C6  UNL     1     -33.271   5.177   5.321  1.00 20.00     0.019 C 
HETATM    8  C7  UNL     1     -35.418   5.449   4.110  1.00 20.00     0.019 C 
HETATM    9  C8  UNL     1     -33.602   4.107   3.072  1.00 20.00     0.019 C 
ENDBRANCH   4   6
TORSDOF 1
