REMARK  1 active torsions:
REMARK  status: ('A' for Active; 'I' for Inactive)
REMARK    1  A    between atoms: C4_4  and  C9_9 
ROOT
HETATM    1  C5  UNL     1     -33.742   6.174   4.288  1.00 20.00     0.135 C 
HETATM    2  C6  UNL     1     -34.538   4.917   4.536  1.00 20.00     0.079 C 
HETATM    3  C7  UNL     1     -33.890   3.935   3.568  1.00 20.00     0.008 C 
HETATM    4  C8  UNL     1     -33.445   4.796   2.392  1.00 20.00     0.017 C 
HETATM    5  C9  UNL     1     -32.876   6.061   3.049  1.00 20.00     0.090 C 
HETATM    6  O10 UNL     1     -33.800   7.163   5.008  1.00 20.00    -0.297 OA
ENDROOT
BRANCH   5   7
HETATM    7  C4  UNL     1     -32.900   7.276   2.159  1.00 20.00    -0.023 A 
HETATM    8  C1  UNL     1     -32.744   7.305   0.753  1.00 20.00     0.034 A 
HETATM    9  C2  UNL     1     -32.839   8.627   0.386  1.00 20.00     0.142 A 
HETATM   10  O11 UNL     1     -33.042   9.412   1.476  1.00 20.00    -0.334 OA
HETATM   11  C3  UNL     1     -33.078   8.582   2.551  1.00 20.00     0.149 A 
ENDBRANCH   5   7
TORSDOF 1
