REMARK  1 active torsions:
REMARK  status: ('A' for Active; 'I' for Inactive)
REMARK    1  A    between atoms: C4_4  and  C8_8 
ROOT
HETATM    1  C5  UNL     1     -34.245   5.850   6.224  1.00 20.00     0.002 C 
HETATM    2  C6  UNL     1     -33.458   6.848   5.371  1.00 20.00     0.011 C 
HETATM    3  C7  UNL     1     -35.294   5.230   5.302  1.00 20.00     0.021 C 
HETATM    4  C8  UNL     1     -34.233   6.966   4.046  1.00 20.00     0.039 C 
HETATM    5  C9  UNL     1     -34.830   5.553   3.885  1.00 20.00     0.090 C 
HETATM    6 CL11 UNL     1     -33.614   4.350   3.351  1.00 20.00    -0.124 Cl
ENDROOT
BRANCH   4   7
HETATM    7  C4  UNL     1     -33.491   7.526   2.851  1.00 20.00    -0.028 A 
HETATM    8  C1  UNL     1     -32.750   6.798   1.889  1.00 20.00     0.034 A 
HETATM    9  C2  UNL     1     -32.261   7.727   1.000  1.00 20.00     0.142 A 
HETATM   10  O10 UNL     1     -32.653   8.979   1.354  1.00 20.00    -0.334 OA
HETATM   11  C3  UNL     1     -33.402   8.848   2.480  1.00 20.00     0.148 A 
ENDBRANCH   4   7
TORSDOF 1
