REMARK  1 active torsions:
REMARK  status: ('A' for Active; 'I' for Inactive)
REMARK    1  A    between atoms: C4_4  and  C8_8 
ROOT
HETATM    1  C5  UNL     1     -33.864   6.869   5.320  1.00 20.00     0.002 C 
HETATM    2  C6  UNL     1     -32.519   7.339   4.751  1.00 20.00     0.011 C 
HETATM    3  C7  UNL     1     -34.411   5.825   4.349  1.00 20.00     0.021 C 
HETATM    4  C8  UNL     1     -32.345   6.645   3.386  1.00 20.00     0.039 C 
HETATM    5  C9  UNL     1     -33.188   5.369   3.567  1.00 20.00     0.090 C 
HETATM    6 CL11 UNL     1     -33.622   4.518   2.076  1.00 20.00    -0.124 Cl
ENDROOT
BRANCH   4   7
HETATM    7  C4  UNL     1     -32.698   7.519   2.193  1.00 20.00    -0.028 A 
HETATM    8  C1  UNL     1     -33.154   8.859   2.223  1.00 20.00     0.034 A 
HETATM    9  C2  UNL     1     -33.340   9.229   0.912  1.00 20.00     0.142 A 
HETATM   10  O10 UNL     1     -33.028   8.203   0.077  1.00 20.00    -0.334 OA
HETATM   11  C3  UNL     1     -32.638   7.166   0.865  1.00 20.00     0.148 A 
ENDBRANCH   4   7
TORSDOF 1
