REMARK  3 active torsions:
REMARK  status: ('A' for Active; 'I' for Inactive)
REMARK    1  A    between atoms: C5_5  and  C6_6 
REMARK    2  A    between atoms: C6_6  and  C7_7 
REMARK    3  A    between atoms: C7_7  and  C8_8 
ROOT
HETATM    1  C1  UNL     1     -34.583   6.411   6.084  1.00 20.00     0.004 C 
HETATM    2  C2  UNL     1     -34.908   5.071   5.434  1.00 20.00     0.026 C 
HETATM    3  C3  UNL     1     -33.270   6.967   5.540  1.00 20.00     0.032 C 
HETATM    4  C4  UNL     1     -34.826   5.175   3.917  1.00 20.00     0.168 C 
HETATM    5  C5  UNL     1     -33.281   6.976   4.010  1.00 20.00     0.121 C 
HETATM    6  O9  UNL     1     -33.547   5.661   3.510  1.00 20.00    -0.386 OA
ENDROOT
BRANCH   5   7
HETATM    7  C6  UNL     1     -31.935   7.422   3.455  1.00 20.00     0.033 C 
BRANCH   7   8
HETATM    8  C7  UNL     1     -31.949   7.471   1.928  1.00 20.00     0.017 C 
BRANCH   8   9
HETATM    9  C8  UNL     1     -33.027   8.421   1.422  1.00 20.00     0.115 C 
HETATM   10 CL10 UNL     1     -33.019   8.478  -0.356  1.00 20.00    -0.130 Cl
ENDBRANCH   8   9
ENDBRANCH   7   8
ENDBRANCH   5   7
TORSDOF 3
