REMARK  1 active torsions:
REMARK  status: ('A' for Active; 'I' for Inactive)
REMARK    1  A    between atoms: C4_4  and  C9_9 
ROOT
HETATM    1  C5  UNL     1     -33.242   5.601   3.054  1.00 20.00     0.135 C 
HETATM    2  C6  UNL     1     -34.068   5.531   4.312  1.00 20.00     0.079 C 
HETATM    3  C7  UNL     1     -33.920   6.940   4.869  1.00 20.00     0.008 C 
HETATM    4  C8  UNL     1     -32.526   7.383   4.441  1.00 20.00     0.017 C 
HETATM    5  C9  UNL     1     -32.324   6.806   3.033  1.00 20.00     0.090 C 
HETATM    6  O10 UNL     1     -33.300   4.767   2.158  1.00 20.00    -0.297 OA
ENDROOT
BRANCH   5   7
HETATM    7  C4  UNL     1     -32.624   7.791   1.928  1.00 20.00    -0.023 A 
HETATM    8  C1  UNL     1     -32.590   7.544   0.534  1.00 20.00     0.034 A 
HETATM    9  C2  UNL     1     -32.934   8.730  -0.072  1.00 20.00     0.142 A 
HETATM   10  O11 UNL     1     -33.177   9.689   0.859  1.00 20.00    -0.334 OA
HETATM   11  C3  UNL     1     -32.987   9.109   2.073  1.00 20.00     0.149 A 
ENDBRANCH   5   7
TORSDOF 1
