REMARK  2 active torsions:
REMARK  status: ('A' for Active; 'I' for Inactive)
REMARK    1  A    between atoms: C5_5  and  C6_6 
REMARK    2  A    between atoms: C6_6  and  C7_7 
ROOT
HETATM    1  C1  UNL     1     -32.646   5.494   2.561  1.00 20.00     0.031 C 
HETATM    2  C2  UNL     1     -32.802   7.135   4.455  1.00 20.00     0.031 C 
HETATM    3  C3  UNL     1     -34.053   5.037   2.934  1.00 20.00     0.168 C 
HETATM    4  C4  UNL     1     -34.199   6.586   4.722  1.00 20.00     0.168 C 
HETATM    5  C5  UNL     1     -32.375   6.940   2.994  1.00 20.00    -0.010 C 
HETATM    6  O8  UNL     1     -34.289   5.217   4.330  1.00 20.00    -0.391 OA
ENDROOT
BRANCH   5   7
HETATM    7  C6  UNL     1     -33.064   7.945   2.067  1.00 20.00     0.020 C 
BRANCH   7   8
HETATM    8  C7  UNL     1     -32.546   7.897   0.636  1.00 20.00     0.115 C 
HETATM    9 CL9  UNL     1     -33.348   9.095  -0.406  1.00 20.00    -0.130 Cl
ENDBRANCH   7   8
ENDBRANCH   5   7
TORSDOF 2
