REMARK  4 active torsions:
REMARK  status: ('A' for Active; 'I' for Inactive)
REMARK    1  A    between atoms: C1_1  and  C2_2 
REMARK    2  A    between atoms: C1_1  and  N9_9 
REMARK    3  A    between atoms: C7_7  and  C8_8 
REMARK    4  A    between atoms: C8_8  and  N9_9 
ROOT
HETATM    1  C4  UNL     1     -34.861   6.245   6.101  1.00 20.00     0.038 C 
HETATM    2  C5  UNL     1     -35.769   6.044   3.781  1.00 20.00     0.038 C 
HETATM    3  C8  UNL     1     -34.546   5.779   4.671  1.00 20.00     0.024 C 
ENDROOT
BRANCH   3   4
HETATM    4  C7  UNL     1     -34.185   4.275   4.705  1.00 20.00     0.026 C 
HETATM    5  C3  UNL     1     -33.845   3.663   3.351  1.00 20.00     0.007 C 
ENDBRANCH   3   4
BRANCH   3   6
HETATM    6  N9  UNL     1     -33.418   6.552   4.178  1.00 20.00    -0.383 N 
HETATM    7  C6  UNL     1     -32.735   7.395   5.153  1.00 20.00     0.150 C 
BRANCH   6   8
HETATM    8  C1  UNL     1     -33.158   6.665   2.840  1.00 20.00     0.127 C 
BRANCH   8   9
HETATM    9  C2  UNL     1     -32.299   7.501   2.231  1.00 20.00     0.275 C 
HETATM   10  O10 UNL     1     -32.006   7.664   1.017  1.00 20.00    -0.301 OA
ENDBRANCH   8   9
ENDBRANCH   6   8
ENDBRANCH   3   6
TORSDOF 4
