REMARK  3 active torsions:
REMARK  status: ('A' for Active; 'I' for Inactive)
REMARK    1  A    between atoms: C4_4  and  C8_8 
REMARK    2  A    between atoms: C8_8  and  N10_10 
REMARK    3  A    between atoms: C9_9  and  N10_10 
ROOT
HETATM    1  C1  UNL     1     -33.912   5.504   7.169  1.00 20.00     0.015 C 
HETATM    2  C2  UNL     1     -34.083   5.377   5.987  1.00 20.00    -0.076 C 
HETATM    3  C6  UNL     1     -33.841   3.822   4.098  1.00 20.00     0.063 C 
HETATM    4  C7  UNL     1     -35.777   5.413   4.201  1.00 20.00     0.063 C 
HETATM    5  C9  UNL     1     -34.294   5.220   4.534  1.00 20.00     0.212 C 
ENDROOT
BRANCH   5   6
HETATM    6  N10 UNL     1     -33.514   6.220   3.832  1.00 20.00     0.115 N 
HETATM    7  H23 UNL     1     -34.006   7.116   3.855  1.00 20.00     0.319 HD
BRANCH   6   8
HETATM    8  C8  UNL     1     -33.292   5.837   2.442  1.00 20.00     0.365 C 
BRANCH   8   9
HETATM    9  C4  UNL     1     -32.920   7.001   1.632  1.00 20.00    -0.077 C 
HETATM   10  C3  UNL     1     -32.614   7.951   0.964  1.00 20.00    -0.109 C 
HETATM   11  C5  UNL     1     -32.243   9.107   0.149  1.00 20.00     0.112 C 
ENDBRANCH   8   9
ENDBRANCH   6   8
ENDBRANCH   5   6
TORSDOF 3
