REMARK  3 active torsions:
REMARK  status: ('A' for Active; 'I' for Inactive)
REMARK    1  A    between atoms: C2_2  and  C6_6 
REMARK    2  A    between atoms: C2_2  and  C7_7 
REMARK    3  A    between atoms: C7_7  and  C8_8 
ROOT
HETATM    1  C1  UNL     1     -33.258   8.594   0.704  1.00 20.00     0.066 C 
HETATM    2  C6  UNL     1     -33.748   7.314   1.224  1.00 20.00     0.202 C 
HETATM    3  N9  UNL     1     -32.873   9.607   0.289  1.00 20.00    -0.197 NA
ENDROOT
BRANCH   2   4
HETATM    4  C2  UNL     1     -33.067   6.917   2.522  1.00 20.00     0.143 C 
HETATM    5  O10 UNL     1     -31.846   6.796   2.619  1.00 20.00    -0.297 OA
BRANCH   4   6
HETATM    6  C7  UNL     1     -33.987   6.704   3.727  1.00 20.00     0.055 C 
HETATM    7  C3  UNL     1     -33.217   7.147   4.971  1.00 20.00     0.018 C 
BRANCH   6   8
HETATM    8  C8  UNL     1     -34.483   5.238   3.795  1.00 20.00    -0.012 C 
HETATM    9  C4  UNL     1     -35.007   4.901   5.198  1.00 20.00     0.010 C 
HETATM   10  C5  UNL     1     -33.387   4.235   3.421  1.00 20.00     0.010 C 
ENDBRANCH   6   8
ENDBRANCH   4   6
ENDBRANCH   2   4
TORSDOF 3
