REMARK  3 active torsions:
REMARK  status: ('A' for Active; 'I' for Inactive)
REMARK    1  A    between atoms: C7_7  and  C8_8 
REMARK    2  A    between atoms: C8_8  and  N11_11 
REMARK    3  A    between atoms: C9_9  and  N11_11 
ROOT
HETATM    1  C1  UNL     1     -33.149   8.784   0.366  1.00 20.00     0.015 C 
HETATM    2  C2  UNL     1     -33.001   7.955   1.221  1.00 20.00    -0.076 C 
HETATM    3  C5  UNL     1     -32.693   5.549   1.628  1.00 20.00     0.063 C 
HETATM    4  C6  UNL     1     -31.558   7.246   3.086  1.00 20.00     0.063 C 
HETATM    5  C9  UNL     1     -32.819   6.934   2.273  1.00 20.00     0.213 C 
ENDROOT
BRANCH   5   6
HETATM    6  N11 UNL     1     -33.970   6.953   3.155  1.00 20.00     0.122 N 
HETATM    7  H25 UNL     1     -34.740   6.438   2.723  1.00 20.00     0.319 HD
BRANCH   6   8
HETATM    8  C8  UNL     1     -33.658   6.345   4.444  1.00 20.00     0.327 C 
HETATM    9  C3  UNL     1     -32.921   7.289   5.296  1.00 20.00     0.095 C 
HETATM   10  N10 UNL     1     -32.337   8.033   5.968  1.00 20.00    -0.195 NA
BRANCH   8  11
HETATM   11  C7  UNL     1     -34.921   5.804   5.126  1.00 20.00     0.046 C 
HETATM   12  C4  UNL     1     -34.668   5.061   6.434  1.00 20.00     0.008 C 
ENDBRANCH   8  11
ENDBRANCH   6   8
ENDBRANCH   5   6
TORSDOF 3
