REMARK  4 active torsions:
REMARK  status: ('A' for Active; 'I' for Inactive)
REMARK    1  A    between atoms: C4_4  and  C6_6 
REMARK    2  A    between atoms: C6_6  and  C8_8 
REMARK    3  A    between atoms: C7_7  and  C8_8 
REMARK    4  A    between atoms: C8_8  and  N9_9 
ROOT
HETATM    1  C1  UNL     1     -33.994   6.387   4.815  1.00 20.00     0.158 C 
HETATM    2  N9  UNL     1     -33.832   7.076   3.881  1.00 20.00    -0.270 NA
HETATM    3  S10 UNL     1     -34.244   5.470   6.093  1.00 20.00    -0.055 SA
ENDROOT
BRANCH   2   4
HETATM    4  C8  UNL     1     -32.648   6.746   3.074  1.00 20.00     0.109 C 
BRANCH   4   5
HETATM    5  C6  UNL     1     -32.119   8.033   2.431  1.00 20.00     0.032 C 
BRANCH   5   6
HETATM    6  C4  UNL     1     -33.140   8.687   1.508  1.00 20.00    -0.013 A 
HETATM    7  C2  UNL     1     -32.695   9.675   0.465  1.00 20.00     0.005 A 
HETATM    8  C3  UNL     1     -33.189   8.317   0.052  1.00 20.00     0.005 A 
ENDBRANCH   5   6
ENDBRANCH   4   5
BRANCH   4   9
HETATM    9  C7  UNL     1     -33.054   5.726   2.003  1.00 20.00     0.023 C 
HETATM   10  C5  UNL     1     -33.611   4.463   2.592  1.00 20.00     0.007 C 
ENDBRANCH   4   9
ENDBRANCH   2   4
TORSDOF 4
