REMARK  2 active torsions:
REMARK  status: ('A' for Active; 'I' for Inactive)
REMARK    1  A    between atoms: C7_7  and  N9_9 
REMARK    2  A    between atoms: C8_8  and  N9_9 
ROOT
HETATM    1  C1  UNL     1     -32.678   4.286   2.399  1.00 20.00     0.015 C 
HETATM    2  C2  UNL     1     -32.983   5.380   2.788  1.00 20.00    -0.076 C 
HETATM    3  C5  UNL     1     -34.423   6.603   4.363  1.00 20.00     0.063 C 
HETATM    4  C6  UNL     1     -32.122   7.443   3.821  1.00 20.00     0.063 C 
HETATM    5  C8  UNL     1     -33.358   6.727   3.267  1.00 20.00     0.212 C 
ENDROOT
BRANCH   5   6
HETATM    6  N9  UNL     1     -33.894   7.490   2.157  1.00 20.00     0.108 N 
HETATM    7  H24 UNL     1     -34.450   8.269   2.515  1.00 20.00     0.318 HD
BRANCH   6   8
HETATM    8  C7  UNL     1     -32.825   8.020   1.317  1.00 20.00     0.214 C 
HETATM    9  C3  UNL     1     -33.370   9.169   0.481  1.00 20.00     0.042 C 
HETATM   10  C4  UNL     1     -32.282   6.897   0.445  1.00 20.00     0.042 C 
ENDBRANCH   6   8
ENDBRANCH   5   6
TORSDOF 2
