REMARK  3 active torsions:
REMARK  status: ('A' for Active; 'I' for Inactive)
REMARK    1  A    between atoms: C4_4  and  C6_6 
REMARK    2  A    between atoms: C6_6  and  C7_7 
REMARK    3  A    between atoms: C7_7  and  N8_8 
ROOT
HETATM    1  C1  UNL     1     -32.474   7.685   1.134  1.00 20.00     0.158 C 
HETATM    2  N8  UNL     1     -32.173   6.938   1.988  1.00 20.00    -0.271 NA
HETATM    3  S9  UNL     1     -32.851   8.705  -0.030  1.00 20.00    -0.055 SA
ENDROOT
BRANCH   2   4
HETATM    4  C7  UNL     1     -33.301   6.259   2.636  1.00 20.00     0.106 C 
HETATM    5  C5  UNL     1     -33.144   4.761   2.408  1.00 20.00     0.034 C 
BRANCH   4   6
HETATM    6  C6  UNL     1     -33.301   6.595   4.129  1.00 20.00     0.031 C 
BRANCH   6   7
HETATM    7  C4  UNL     1     -34.659   6.361   4.779  1.00 20.00    -0.013 A 
HETATM    8  C2  UNL     1     -34.995   5.020   5.370  1.00 20.00     0.005 A 
HETATM    9  C3  UNL     1     -34.767   6.202   6.270  1.00 20.00     0.005 A 
ENDBRANCH   6   7
ENDBRANCH   4   6
ENDBRANCH   2   4
TORSDOF 3
