REMARK  3 active torsions:
REMARK  status: ('A' for Active; 'I' for Inactive)
REMARK    1  A    between atoms: C1_1  and  C7_7 
REMARK       I    between atoms: C1_1  and  N9_9 
REMARK    2  A    between atoms: C7_7  and  C8_8 
REMARK    3  A    between atoms: N9_9  and  O11_11 
ROOT
HETATM    1  C1  UNL     1     -33.074   6.500   2.032  1.00 20.00     0.247 C 
HETATM    2  C5  UNL     1     -31.754   7.374   0.108  1.00 20.00     0.189 C 
HETATM    3  N9  UNL     1     -32.727   7.518   1.176  1.00 20.00    -0.231 N 
HETATM    4  O10 UNL     1     -33.046   5.312   1.699  1.00 20.00    -0.271 OA
ENDROOT
BRANCH   1   5
HETATM    5  C7  UNL     1     -33.527   6.903   3.445  1.00 20.00     0.079 C 
HETATM    6  C2  UNL     1     -32.447   7.753   4.123  1.00 20.00     0.020 C 
BRANCH   5   7
HETATM    7  C8  UNL     1     -33.946   5.649   4.259  1.00 20.00    -0.010 C 
HETATM    8  C3  UNL     1     -35.334   5.153   3.843  1.00 20.00     0.010 C 
HETATM    9  C4  UNL     1     -33.905   5.859   5.776  1.00 20.00     0.010 C 
ENDBRANCH   5   7
ENDBRANCH   1   5
BRANCH   3  10
HETATM   10  O11 UNL     1     -33.277   8.811   1.241  1.00 20.00    -0.281 OA
HETATM   11  C6  UNL     1     -33.930   9.102   0.008  1.00 20.00     0.238 C 
ENDBRANCH   3  10
TORSDOF 3
