REMARK  3 active torsions:
REMARK  status: ('A' for Active; 'I' for Inactive)
REMARK    1  A    between atoms: C2_2  and  C3_3 
REMARK    2  A    between atoms: C3_3  and  C11_11 
REMARK    3  A    between atoms: C11_11  and  C12_12 
ROOT
HETATM    1  C3  UNL     1     -33.314   6.454   2.714  1.00 20.00     0.159 C 
HETATM    2  O13 UNL     1     -32.941   5.337   2.366  1.00 20.00    -0.292 OA
ENDROOT
BRANCH   1   3
HETATM    3  C2  UNL     1     -33.141   7.589   1.804  1.00 20.00    -0.016 C 
HETATM    4  C1  UNL     1     -34.036   8.585   1.871  1.00 20.00    -0.016 C 
HETATM    5  C4  UNL     1     -33.956   9.803   0.996  1.00 20.00     0.028 C 
HETATM    6  C6  UNL     1     -32.616   9.939   0.266  1.00 20.00     0.004 C 
HETATM    7  C7  UNL     1     -32.141   8.595  -0.281  1.00 20.00     0.005 C 
HETATM    8  C5  UNL     1     -31.993   7.562   0.840  1.00 20.00     0.042 C 
ENDBRANCH   1   3
BRANCH   1   9
HETATM    9  C11 UNL     1     -33.974   6.736   4.063  1.00 20.00     0.059 C 
HETATM   10  C8  UNL     1     -33.218   7.847   4.797  1.00 20.00     0.018 C 
BRANCH   9  11
HETATM   11  C12 UNL     1     -34.136   5.425   4.873  1.00 20.00    -0.012 C 
HETATM   12  C9  UNL     1     -34.286   5.650   6.380  1.00 20.00     0.010 C 
HETATM   13  C10 UNL     1     -35.311   4.590   4.356  1.00 20.00     0.010 C 
ENDBRANCH   9  11
ENDBRANCH   1   9
TORSDOF 3
