REMARK  1 active torsions:
REMARK  status: ('A' for Active; 'I' for Inactive)
REMARK    1  A    between atoms: C7_7  and  N9_9 
ROOT
HETATM    1  C1  UNL     1     -32.790   8.027   0.945  1.00 20.00     0.089 C 
HETATM    2  C7  UNL     1     -32.837   7.809   2.389  1.00 20.00     0.396 C 
HETATM    3  N8  UNL     1     -32.751   8.204  -0.201  1.00 20.00    -0.195 NA
ENDROOT
BRANCH   2   4
HETATM    4  N9  UNL     1     -33.495   6.541   2.703  1.00 20.00     0.107 N 
HETATM    5  C2  UNL     1     -32.567   5.418   2.524  1.00 20.00     0.284 C 
HETATM    6  C3  UNL     1     -33.260   4.058   2.569  1.00 20.00     0.104 C 
HETATM    7  S10 UNL     1     -34.082   3.765   4.156  1.00 20.00    -0.165 SA
HETATM    8  C4  UNL     1     -35.036   5.308   4.215  1.00 20.00     0.109 C 
HETATM    9  C5  UNL     1     -34.170   6.564   4.017  1.00 20.00     0.229 C 
HETATM   10  C6  UNL     1     -33.254   6.818   5.227  1.00 20.00     0.043 C 
ENDBRANCH   2   4
TORSDOF 1
