REMARK  2 active torsions:
REMARK  status: ('A' for Active; 'I' for Inactive)
REMARK    1  A    between atoms: C4_4  and  C5_5 
REMARK    2  A    between atoms: C5_5  and  N6_6 
ROOT
HETATM    1  C1  UNL     1     -34.537   6.099   6.323  1.00 20.00     0.012 C 
HETATM    2  C2  UNL     1     -34.705   5.785   5.176  1.00 20.00    -0.116 C 
HETATM    3  C4  UNL     1     -34.916   5.401   3.773  1.00 20.00     0.115 C 
ENDROOT
BRANCH   3   4
HETATM    4  C5  UNL     1     -33.605   5.072   3.070  1.00 20.00     0.162 C 
BRANCH   4   5
HETATM    5  N6  UNL     1     -32.712   6.233   3.119  1.00 20.00    -0.275 NA
HETATM    6  C3  UNL     1     -32.785   6.951   2.193  1.00 20.00     0.157 C 
HETATM    7  S7  UNL     1     -32.862   7.943   0.950  1.00 20.00    -0.055 SA
ENDBRANCH   4   5
ENDBRANCH   3   4
TORSDOF 2
