REMARK  3 active torsions:
REMARK  status: ('A' for Active; 'I' for Inactive)
REMARK    1  A    between atoms: C4_4  and  N8_8 
REMARK    2  A    between atoms: C6_6  and  C7_7 
REMARK    3  A    between atoms: C6_6  and  N8_8 
ROOT
HETATM    1  C1  UNL     1     -34.514   5.146   4.930  1.00 20.00     0.064 C 
HETATM    2  C2  UNL     1     -34.938   5.794   6.229  1.00 20.00     0.170 C 
HETATM    3  C3  UNL     1     -33.146   7.010   5.370  1.00 20.00     0.203 C 
HETATM    4  C4  UNL     1     -33.832   6.294   4.221  1.00 20.00     0.248 C 
HETATM    5  O9  UNL     1     -33.938   6.772   6.544  1.00 20.00    -0.389 OA
ENDROOT
BRANCH   4   6
HETATM    6  N8  UNL     1     -32.926   5.870   3.195  1.00 20.00     0.092 N 
HETATM    7  C5  UNL     1     -33.635   5.100   2.175  1.00 20.00     0.310 C 
BRANCH   6   8
HETATM    8  C6  UNL     1     -32.260   7.025   2.594  1.00 20.00     0.287 C 
BRANCH   8   9
HETATM    9  C7  UNL     1     -33.232   7.959   1.892  1.00 20.00     0.144 C 
HETATM   10 CL10 UNL     1     -32.387   9.349   1.168  1.00 20.00    -0.129 Cl
ENDBRANCH   8   9
ENDBRANCH   6   8
ENDBRANCH   4   6
TORSDOF 3
