REMARK  0 active torsions:
REMARK  status: ('A' for Active; 'I' for Inactive)
ROOT
HETATM    1  C1  UNL     1     -35.718   5.635   4.131  1.00 20.00     0.000 C 
HETATM    2  C2  UNL     1     -34.741   6.096   5.205  1.00 20.00     0.000 C 
HETATM    3  C3  UNL     1     -35.263   5.771   2.683  1.00 20.00     0.003 C 
HETATM    4  C4  UNL     1     -33.270   5.870   4.877  1.00 20.00     0.003 C 
HETATM    5  C5  UNL     1     -34.554   7.085   2.344  1.00 20.00     0.038 C 
HETATM    6  C6  UNL     1     -32.665   7.020   4.066  1.00 20.00     0.038 C 
HETATM    7  C7  UNL     1     -31.561   7.040   0.003  1.00 20.00     0.046 C 
HETATM    8  C8  UNL     1     -32.348   8.368   1.994  1.00 20.00     0.058 C 
HETATM    9  C9  UNL     1     -32.390   5.888   0.545  1.00 20.00     0.170 C 
HETATM   10  C10 UNL     1     -32.081   8.389   0.485  1.00 20.00     0.087 C 
HETATM   11  C11 UNL     1     -33.018   7.078   2.557  1.00 20.00     0.062 C 
HETATM   12  O12 UNL     1     -32.413   5.915   1.969  1.00 20.00    -0.380 OA
HETATM   13 CL13 UNL     1     -33.527   8.883  -0.442  1.00 20.00    -0.125 Cl
ENDROOT
TORSDOF 0
