REMARK  2 active torsions:
REMARK  status: ('A' for Active; 'I' for Inactive)
REMARK    1  A    between atoms: C5_5  and  C8_8 
REMARK    2  A    between atoms: C8_8  and  C9_9 
ROOT
HETATM    1  C1  UNL     1     -34.675   5.104   3.661  1.00 20.00     0.046 C 
HETATM    2  C2  UNL     1     -33.250   6.986   4.489  1.00 20.00     0.057 C 
HETATM    3  C3  UNL     1     -33.851   5.033   2.378  1.00 20.00     0.170 C 
HETATM    4  C4  UNL     1     -33.830   5.610   4.818  1.00 20.00     0.087 C 
HETATM    5  C5  UNL     1     -32.732   7.078   3.033  1.00 20.00     0.058 C 
HETATM    6  C6  UNL     1     -31.307   7.649   3.026  1.00 20.00     0.046 C 
HETATM    7  O10 UNL     1     -32.635   5.776   2.442  1.00 20.00    -0.380 OA
HETATM    8 CL11 UNL     1     -34.796   5.684   6.316  1.00 20.00    -0.125 Cl
ENDROOT
BRANCH   5   9
HETATM    9  C8  UNL     1     -33.620   7.993   2.174  1.00 20.00     0.037 C 
BRANCH   9  10
HETATM   10  C9  UNL     1     -33.077   8.104   0.757  1.00 20.00    -0.002 C 
HETATM   11  C7  UNL     1     -33.968   8.990  -0.099  1.00 20.00     0.005 C 
ENDBRANCH   9  10
ENDBRANCH   5   9
TORSDOF 2
