REMARK  2 active torsions:
REMARK  status: ('A' for Active; 'I' for Inactive)
REMARK    1  A    between atoms: C5_5  and  C8_8 
REMARK    2  A    between atoms: C5_5  and  C9_9 
ROOT
HETATM    1  C1  UNL     1     -34.744   6.952   6.141  1.00 20.00     0.046 C 
HETATM    2  C2  UNL     1     -35.001   5.866   3.888  1.00 20.00     0.058 C 
HETATM    3  C3  UNL     1     -33.363   7.402   5.691  1.00 20.00     0.170 C 
HETATM    4  C4  UNL     1     -35.211   5.705   5.395  1.00 20.00     0.087 C 
HETATM    5  C5  UNL     1     -33.645   6.484   3.474  1.00 20.00     0.061 C 
HETATM    6  O10 UNL     1     -33.332   7.626   4.284  1.00 20.00    -0.380 OA
HETATM    7 CL11 UNL     1     -34.394   4.244   6.022  1.00 20.00    -0.125 Cl
ENDROOT
BRANCH   5   8
HETATM    8  C8  UNL     1     -32.485   5.479   3.488  1.00 20.00     0.033 C 
HETATM    9  C6  UNL     1     -32.734   4.347   2.551  1.00 20.00     0.008 C 
ENDBRANCH   5   8
BRANCH   5  10
HETATM   10  C9  UNL     1     -33.772   7.019   2.036  1.00 20.00     0.033 C 
HETATM   11  C7  UNL     1     -32.496   7.632   1.570  1.00 20.00     0.008 C 
ENDBRANCH   5  10
TORSDOF 2
