REMARK  2 active torsions:
REMARK  status: ('A' for Active; 'I' for Inactive)
REMARK    1  A    between atoms: C5_5  and  C8_8 
REMARK    2  A    between atoms: C8_8  and  C9_9 
ROOT
HETATM    1  C1  UNL     1     -34.146   4.674   4.044  1.00 20.00     0.046 C 
HETATM    2  C2  UNL     1     -33.348   6.959   4.688  1.00 20.00     0.052 C 
HETATM    3  C3  UNL     1     -33.730   4.992   2.615  1.00 20.00     0.169 C 
HETATM    4  C4  UNL     1     -34.499   5.959   4.785  1.00 20.00     0.086 C 
HETATM    5  C5  UNL     1     -32.889   7.163   3.240  1.00 20.00     0.123 C 
HETATM    6  O10 UNL     1     -32.643   5.915   2.579  1.00 20.00    -0.386 OA
HETATM    7 CL11 UNL     1     -34.865   5.604   6.496  1.00 20.00    -0.125 Cl
ENDROOT
BRANCH   5   8
HETATM    8  C8  UNL     1     -33.811   8.037   2.435  1.00 20.00     0.035 C 
BRANCH   8   9
HETATM    9  C9  UNL     1     -33.129   8.703   1.229  1.00 20.00    -0.020 C 
HETATM   10  C6  UNL     1     -32.560   7.681   0.243  1.00 20.00     0.009 C 
HETATM   11  C7  UNL     1     -34.124   9.617   0.509  1.00 20.00     0.009 C 
ENDBRANCH   8   9
ENDBRANCH   5   8
TORSDOF 2
