REMARK  1 active torsions:
REMARK  status: ('A' for Active; 'I' for Inactive)
REMARK    1  A    between atoms: C6_6  and  C8_8 
ROOT
HETATM    1  C3  UNL     1     -33.689   4.789   4.715  1.00 20.00     0.046 C 
HETATM    2  C4  UNL     1     -34.347   7.093   3.870  1.00 20.00     0.058 C 
HETATM    3  C5  UNL     1     -33.567   4.603   3.212  1.00 20.00     0.170 C 
HETATM    4  C7  UNL     1     -34.424   6.092   5.027  1.00 20.00     0.087 C 
HETATM    5  C8  UNL     1     -33.072   6.973   3.003  1.00 20.00     0.062 C 
HETATM    6  C9  UNL     1     -31.845   7.542   3.730  1.00 20.00     0.046 C 
HETATM    7  O10 UNL     1     -32.746   5.620   2.644  1.00 20.00    -0.380 OA
HETATM    8 CL11 UNL     1     -33.813   6.801   6.551  1.00 20.00    -0.125 Cl
ENDROOT
BRANCH   5   9
HETATM    9  C6  UNL     1     -33.275   7.740   1.710  1.00 20.00     0.020 A 
HETATM   10  C1  UNL     1     -32.442   8.955   1.411  1.00 20.00     0.008 A 
HETATM   11  C2  UNL     1     -32.232   7.689   0.628  1.00 20.00     0.008 A 
ENDBRANCH   5   9
TORSDOF 1
