REMARK  1 active torsions:
REMARK  status: ('A' for Active; 'I' for Inactive)
REMARK    1  A    between atoms: C5_5  and  C9_9 
ROOT
HETATM    1  C1  UNL     1     -34.897   4.776   3.600  1.00 20.00     0.046 C 
HETATM    2  C2  UNL     1     -34.686   7.246   3.187  1.00 20.00     0.058 C 
HETATM    3  C3  UNL     1     -33.422   4.661   3.246  1.00 20.00     0.170 C 
HETATM    4  C4  UNL     1     -35.251   6.167   4.113  1.00 20.00     0.087 C 
HETATM    5  C5  UNL     1     -33.236   7.009   2.692  1.00 20.00     0.061 C 
HETATM    6  C6  UNL     1     -32.174   7.405   3.731  1.00 20.00     0.046 C 
HETATM    7  O10 UNL     1     -33.048   5.645   2.287  1.00 20.00    -0.380 OA
HETATM    8 CL11 UNL     1     -34.692   6.387   5.796  1.00 20.00    -0.125 Cl
ENDROOT
BRANCH   5   9
HETATM    9  C9  UNL     1     -33.008   7.857   1.449  1.00 20.00     0.012 C 
HETATM   10  C7  UNL     1     -33.238   9.330   1.766  1.00 20.00     0.012 C 
HETATM   11  C8  UNL     1     -31.604   7.629   0.905  1.00 20.00     0.012 C 
ENDBRANCH   5   9
TORSDOF 1
