REMARK  2 active torsions:
REMARK  status: ('A' for Active; 'I' for Inactive)
REMARK    1  A    between atoms: C4_4  and  O10_10 
REMARK    2  A    between atoms: C5_5  and  C8_8 
ROOT
HETATM    1  C1  UNL     1     -34.368   4.796   6.048  1.00 20.00     0.058 C 
HETATM    2  C2  UNL     1     -33.755   5.218   3.651  1.00 20.00     0.069 C 
HETATM    3  C3  UNL     1     -34.080   6.265   6.316  1.00 20.00     0.171 C 
HETATM    4  C4  UNL     1     -34.769   4.571   4.595  1.00 20.00     0.123 C 
HETATM    5  C5  UNL     1     -33.364   6.662   4.040  1.00 20.00     0.059 C 
HETATM    6  C6  UNL     1     -34.412   7.682   3.642  1.00 20.00     0.046 C 
HETATM    7  O9  UNL     1     -33.069   6.762   5.443  1.00 20.00    -0.380 OA
ENDROOT
BRANCH   5   8
HETATM    8  C8  UNL     1     -32.051   7.022   3.319  1.00 20.00     0.033 C 
HETATM    9  C7  UNL     1     -32.203   6.942   1.839  1.00 20.00     0.008 C 
ENDBRANCH   5   8
BRANCH   4  10
HETATM   10  O10 UNL     1     -36.063   5.110   4.351  1.00 20.00    -0.395 OA
HETATM   11  H26 UNL     1     -36.674   4.648   4.947  1.00 20.00     0.210 HD
ENDBRANCH   4  10
TORSDOF 2
