REMARK  0 active torsions:
REMARK  status: ('A' for Active; 'I' for Inactive)
ROOT
HETATM    1  C1  UNL     1     -32.837   7.746   1.627  1.00 20.00     0.085 C 
HETATM    2  C2  UNL     1     -32.507   5.415   2.363  1.00 20.00     0.067 C 
HETATM    3  C3  UNL     1     -34.400   6.790   3.287  1.00 20.00     0.078 C 
HETATM    4  C4  UNL     1     -32.833   4.378   3.429  1.00 20.00     0.171 C 
HETATM    5  C5  UNL     1     -32.951   6.823   2.772  1.00 20.00     0.130 C 
HETATM    6  C6  UNL     1     -34.742   5.616   4.236  1.00 20.00     0.056 C 
HETATM    7  C7  UNL     1     -36.272   5.443   4.263  1.00 20.00     0.045 C 
HETATM    8  C8  UNL     1     -34.283   5.841   5.684  1.00 20.00     0.045 C 
HETATM    9  N9  UNL     1     -32.748   8.471   0.726  1.00 20.00    -0.195 NA
HETATM   10  O10 UNL     1     -34.224   4.377   3.731  1.00 20.00    -0.381 OA
HETATM   11 CL11 UNL     1     -31.841   7.485   4.019  1.00 20.00    -0.103 Cl
ENDROOT
TORSDOF 0
