REMARK  1 active torsions:
REMARK  status: ('A' for Active; 'I' for Inactive)
REMARK    1  A    between atoms: C5_5  and  C7_7 
ROOT
HETATM    1  C1  UNL     1     -34.194   4.574   4.952  1.00 20.00     0.046 C 
HETATM    2  C2  UNL     1     -33.578   6.857   4.111  1.00 20.00     0.052 C 
HETATM    3  C3  UNL     1     -34.112   4.095   3.508  1.00 20.00     0.169 C 
HETATM    4  C4  UNL     1     -34.537   6.062   4.995  1.00 20.00     0.086 C 
HETATM    5  C5  UNL     1     -33.537   6.255   2.703  1.00 20.00     0.122 C 
HETATM    6  O8  UNL     1     -33.171   4.872   2.767  1.00 20.00    -0.386 OA
HETATM    7 CL9  UNL     1     -34.477   6.663   6.673  1.00 20.00    -0.125 Cl
ENDROOT
BRANCH   5   8
HETATM    8  C7  UNL     1     -32.511   6.967   1.832  1.00 20.00     0.027 C 
HETATM    9  C6  UNL     1     -32.839   8.416   1.657  1.00 20.00     0.007 C 
ENDBRANCH   5   8
TORSDOF 1
