REMARK  1 active torsions:
REMARK  status: ('A' for Active; 'I' for Inactive)
REMARK    1  A    between atoms: C6_6  and  C7_7 
ROOT
HETATM    1  C3  UNL     1     -34.148   4.606   3.889  1.00 20.00     0.046 C 
HETATM    2  C4  UNL     1     -33.112   6.850   4.291  1.00 20.00     0.052 C 
HETATM    3  C5  UNL     1     -33.689   4.715   2.441  1.00 20.00     0.169 C 
HETATM    4  C7  UNL     1     -32.623   6.841   2.839  1.00 20.00     0.126 C 
HETATM    5  C8  UNL     1     -34.365   5.996   4.477  1.00 20.00     0.086 C 
HETATM    6  O9  UNL     1     -32.508   5.508   2.325  1.00 20.00    -0.385 OA
HETATM    7 CL10 UNL     1     -34.780   5.876   6.209  1.00 20.00    -0.125 Cl
ENDROOT
BRANCH   4   8
HETATM    8  C6  UNL     1     -33.440   7.713   1.925  1.00 20.00     0.015 A 
HETATM    9  C1  UNL     1     -33.240   9.203   1.921  1.00 20.00     0.007 A 
HETATM   10  C2  UNL     1     -32.796   8.382   0.743  1.00 20.00     0.007 A 
ENDBRANCH   4   8
TORSDOF 1
