REMARK  0 active torsions:
REMARK  status: ('A' for Active; 'I' for Inactive)
ROOT
HETATM    1  C1  UNL     1     -34.213   4.547   3.829  1.00 20.00     0.046 C 
HETATM    2  C2  UNL     1     -34.338   7.017   3.373  1.00 20.00     0.057 C 
HETATM    3  C3  UNL     1     -32.767   4.604   3.361  1.00 20.00     0.170 C 
HETATM    4  C4  UNL     1     -34.698   5.896   4.352  1.00 20.00     0.087 C 
HETATM    5  C5  UNL     1     -32.909   6.946   2.787  1.00 20.00     0.055 C 
HETATM    6  C6  UNL     1     -31.831   7.485   3.738  1.00 20.00     0.045 C 
HETATM    7  C7  UNL     1     -32.864   7.802   1.508  1.00 20.00     0.045 C 
HETATM    8  O8  UNL     1     -32.590   5.611   2.369  1.00 20.00    -0.381 OA
HETATM    9 CL9  UNL     1     -34.049   6.217   5.986  1.00 20.00    -0.125 Cl
ENDROOT
TORSDOF 0
