REMARK  0 active torsions:
REMARK  status: ('A' for Active; 'I' for Inactive)
ROOT
HETATM    1  C1  UNL     1     -32.778   8.142   0.671  1.00 20.00     0.088 C 
HETATM    2  C2  UNL     1     -32.712   6.179   2.064  1.00 20.00    -0.066 C 
HETATM    3  C3  UNL     1     -32.823   6.737   0.851  1.00 20.00     0.096 C 
HETATM    4  C4  UNL     1     -32.755   4.692   2.291  1.00 20.00     0.061 C 
HETATM    5  C5  UNL     1     -32.564   6.982   3.329  1.00 20.00     0.066 C 
HETATM    6  C6  UNL     1     -33.789   4.373   3.367  1.00 20.00     0.172 C 
HETATM    7  C7  UNL     1     -33.620   6.530   4.345  1.00 20.00     0.121 C 
HETATM    8  C8  UNL     1     -33.417   7.220   5.687  1.00 20.00     0.040 C 
HETATM    9  N9  UNL     1     -32.742   9.292   0.516  1.00 20.00    -0.192 NA
HETATM   10  O10 UNL     1     -33.523   5.114   4.563  1.00 20.00    -0.386 OA
ENDROOT
TORSDOF 0
