REMARK  2 active torsions:
REMARK  status: ('A' for Active; 'I' for Inactive)
REMARK    1  A    between atoms: C6_6  and  C8_8 
REMARK    2  A    between atoms: C7_7  and  O11_11 
ROOT
HETATM    1  C3  UNL     1     -32.750   7.682   1.350  1.00 20.00     0.058 C 
HETATM    2  C4  UNL     1     -34.327   7.944   3.269  1.00 20.00     0.069 C 
HETATM    3  C5  UNL     1     -32.204   6.443   2.037  1.00 20.00     0.171 C 
HETATM    4  C7  UNL     1     -33.319   8.658   2.372  1.00 20.00     0.123 C 
HETATM    5  C8  UNL     1     -33.763   6.646   3.881  1.00 20.00     0.063 C 
HETATM    6  C9  UNL     1     -32.722   6.937   4.975  1.00 20.00     0.046 C 
HETATM    7  O10 UNL     1     -33.193   5.819   2.854  1.00 20.00    -0.380 OA
ENDROOT
BRANCH   5   8
HETATM    8  C6  UNL     1     -34.900   5.851   4.495  1.00 20.00     0.020 A 
HETATM    9  C1  UNL     1     -34.648   4.480   5.057  1.00 20.00     0.008 A 
HETATM   10  C2  UNL     1     -34.951   5.627   5.981  1.00 20.00     0.008 A 
ENDBRANCH   5   8
BRANCH   4  11
HETATM   11  O11 UNL     1     -33.974   9.731   1.706  1.00 20.00    -0.395 OA
HETATM   12  H27 UNL     1     -34.316  10.321   2.396  1.00 20.00     0.210 HD
ENDBRANCH   4  11
TORSDOF 2
