REMARK  1 active torsions:
REMARK  status: ('A' for Active; 'I' for Inactive)
REMARK    1  A    between atoms: C4_4  and  S9_9 
ROOT
HETATM    1  C1  UNL     1     -33.381   5.079   2.145  1.00 20.00     0.041 C 
HETATM    2  C2  UNL     1     -33.483   6.934   3.829  1.00 20.00     0.052 C 
HETATM    3  C3  UNL     1     -33.712   4.061   3.235  1.00 20.00     0.170 C 
HETATM    4  C4  UNL     1     -32.642   6.274   2.731  1.00 20.00     0.049 C 
HETATM    5  C5  UNL     1     -34.201   5.899   4.732  1.00 20.00     0.054 C 
HETATM    6  C6  UNL     1     -35.716   5.873   4.474  1.00 20.00     0.045 C 
HETATM    7  C7  UNL     1     -33.974   6.258   6.207  1.00 20.00     0.045 C 
HETATM    8  O8  UNL     1     -33.637   4.594   4.556  1.00 20.00    -0.381 OA
ENDROOT
BRANCH   4   9
HETATM    9  S9  UNL     1     -32.232   7.482   1.429  1.00 20.00    -0.177 SA
HETATM   10  H23 UNL     1     -31.624   8.354   2.243  1.00 20.00     0.102 HD
ENDBRANCH   4   9
TORSDOF 1
