REMARK  1 active torsions:
REMARK  status: ('A' for Active; 'I' for Inactive)
REMARK    1  A    between atoms: C5_5  and  C8_8 
ROOT
HETATM    1  C1  UNL     1     -34.930   4.875   6.149  1.00 20.00     0.046 C 
HETATM    2  C2  UNL     1     -34.929   6.046   3.925  1.00 20.00     0.057 C 
HETATM    3  C3  UNL     1     -33.829   3.981   5.600  1.00 20.00     0.170 C 
HETATM    4  C4  UNL     1     -34.968   6.227   5.444  1.00 20.00     0.087 C 
HETATM    5  C5  UNL     1     -33.921   4.990   3.403  1.00 20.00     0.058 C 
HETATM    6  C6  UNL     1     -34.335   4.586   1.995  1.00 20.00     0.046 C 
HETATM    7  O9  UNL     1     -33.972   3.795   4.195  1.00 20.00    -0.380 OA
HETATM    8 CL10 UNL     1     -33.642   7.281   6.014  1.00 20.00    -0.125 Cl
ENDROOT
BRANCH   5   9
HETATM    9  C8  UNL     1     -32.478   5.519   3.334  1.00 20.00     0.033 C 
HETATM   10  C7  UNL     1     -32.372   6.695   2.425  1.00 20.00     0.008 C 
ENDBRANCH   5   9
TORSDOF 1
