REMARK  2 active torsions:
REMARK  status: ('A' for Active; 'I' for Inactive)
REMARK    1  A    between atoms: C4_4  and  S10_10 
REMARK    2  A    between atoms: C5_5  and  C8_8 
ROOT
HETATM    1  C1  UNL     1     -34.226   4.471   4.207  1.00 20.00     0.041 C 
HETATM    2  C2  UNL     1     -34.329   6.973   4.161  1.00 20.00     0.052 C 
HETATM    3  C3  UNL     1     -33.250   4.547   3.040  1.00 20.00     0.170 C 
HETATM    4  C4  UNL     1     -34.144   5.742   5.050  1.00 20.00     0.049 C 
HETATM    5  C5  UNL     1     -33.374   6.960   2.949  1.00 20.00     0.058 C 
HETATM    6  C6  UNL     1     -31.920   7.244   3.353  1.00 20.00     0.046 C 
HETATM    7  O9  UNL     1     -33.473   5.711   2.247  1.00 20.00    -0.381 OA
ENDROOT
BRANCH   5   8
HETATM    8  C8  UNL     1     -33.814   8.039   1.949  1.00 20.00     0.033 C 
HETATM    9  C7  UNL     1     -32.922   8.069   0.755  1.00 20.00     0.008 C 
ENDBRANCH   5   8
BRANCH   4  10
HETATM   10  S10 UNL     1     -35.411   5.714   6.362  1.00 20.00    -0.177 SA
HETATM   11  H26 UNL     1     -35.084   6.902   6.888  1.00 20.00     0.102 HD
ENDBRANCH   4  10
TORSDOF 2
