REMARK  0 active torsions:
REMARK  status: ('A' for Active; 'I' for Inactive)
ROOT
HETATM    1  C1  UNL     1     -34.180   7.175   5.464  1.00 20.00     0.046 C 
HETATM    2  C2  UNL     1     -34.720   5.448   3.718  1.00 20.00     0.057 C 
HETATM    3  C3  UNL     1     -32.758   7.177   4.923  1.00 20.00     0.170 C 
HETATM    4  C4  UNL     1     -34.897   5.858   5.182  1.00 20.00     0.087 C 
HETATM    5  C5  UNL     1     -33.292   5.623   3.152  1.00 20.00     0.055 C 
HETATM    6  C6  UNL     1     -32.335   4.487   3.544  1.00 20.00     0.045 C 
HETATM    7  C7  UNL     1     -33.375   5.644   1.616  1.00 20.00     0.045 C 
HETATM    8  O8  UNL     1     -32.742   6.894   3.526  1.00 20.00    -0.381 OA
HETATM    9 CL9  UNL     1     -34.337   4.577   6.297  1.00 20.00    -0.125 Cl
ENDROOT
TORSDOF 0
