REMARK  0 active torsions:
REMARK  status: ('A' for Active; 'I' for Inactive)
ROOT
HETATM    1  C1  UNL     1     -33.160   8.089   1.254  1.00 20.00     0.088 C 
HETATM    2  C2  UNL     1     -33.004   6.019   2.476  1.00 20.00    -0.065 C 
HETATM    3  C3  UNL     1     -33.127   6.673   1.313  1.00 20.00     0.096 C 
HETATM    4  C4  UNL     1     -32.965   4.521   2.580  1.00 20.00     0.061 C 
HETATM    5  C5  UNL     1     -32.915   6.713   3.809  1.00 20.00     0.072 C 
HETATM    6  C6  UNL     1     -34.014   4.053   3.582  1.00 20.00     0.173 C 
HETATM    7  C7  UNL     1     -33.958   6.145   4.793  1.00 20.00     0.057 C 
HETATM    8  C8  UNL     1     -35.388   6.589   4.445  1.00 20.00     0.046 C 
HETATM    9  C9  UNL     1     -33.632   6.636   6.210  1.00 20.00     0.046 C 
HETATM   10  N10 UNL     1     -33.188   9.248   1.199  1.00 20.00    -0.192 NA
HETATM   11  O11 UNL     1     -33.864   4.708   4.844  1.00 20.00    -0.380 OA
ENDROOT
TORSDOF 0
