REMARK  3 active torsions:
REMARK  status: ('A' for Active; 'I' for Inactive)
REMARK    1  A    between atoms: C1_1  and  C7_7 
REMARK    2  A    between atoms: C1_1  and  C9_9 
REMARK    3  A    between atoms: C8_8  and  C9_9 
ROOT
HETATM    1  C1  UNL     1     -33.071   6.015   2.706  1.00 20.00     0.141 C 
HETATM    2  O10 UNL     1     -32.833   4.882   2.290  1.00 20.00    -0.297 OA
ENDROOT
BRANCH   1   3
HETATM    3  C7  UNL     1     -34.292   6.295   3.520  1.00 20.00     0.116 C 
HETATM    4  C3  UNL     1     -35.091   5.033   3.818  1.00 20.00     0.024 C 
HETATM    5  C2  UNL     1     -34.486   4.390   5.060  1.00 20.00     0.012 C 
HETATM    6  C6  UNL     1     -34.318   5.497   6.086  1.00 20.00     0.075 C 
HETATM    7  S11 UNL     1     -33.762   6.935   5.133  1.00 20.00    -0.157 SA
ENDBRANCH   1   3
BRANCH   1   8
HETATM    8  C9  UNL     1     -32.164   7.200   2.433  1.00 20.00     0.084 C 
BRANCH   8   9
HETATM    9  C8  UNL     1     -32.858   8.300   1.652  1.00 20.00    -0.007 A 
HETATM   10  C4  UNL     1     -32.050   9.330   0.912  1.00 20.00     0.005 A 
HETATM   11  C5  UNL     1     -32.828   8.296   0.149  1.00 20.00     0.005 A 
ENDBRANCH   8   9
ENDBRANCH   1   8
TORSDOF 3
