REMARK  1 active torsions:
REMARK  status: ('A' for Active; 'I' for Inactive)
REMARK    1  A    between atoms: C4_4  and  C5_5 
ROOT
HETATM    1  C1  UNL     1     -33.190   6.786   4.351  1.00 20.00     0.016 C 
HETATM    2  C2  UNL     1     -34.143   6.118   5.327  1.00 20.00     0.074 C 
HETATM    3  C3  UNL     1     -33.659   4.777   3.051  1.00 20.00     0.079 C 
HETATM    4  C4  UNL     1     -33.582   6.299   2.956  1.00 20.00     0.005 C 
HETATM    5  S6  UNL     1     -34.369   4.437   4.686  1.00 20.00    -0.169 SA
ENDROOT
BRANCH   4   6
HETATM    6  C5  UNL     1     -32.609   6.748   1.906  1.00 20.00     0.090 C 
HETATM    7 BR7  UNL     1     -33.017   8.571   1.391  1.00 20.00    -0.096 Br
ENDBRANCH   4   6
TORSDOF 1
