REMARK  1 active torsions:
REMARK  status: ('A' for Active; 'I' for Inactive)
REMARK    1  A    between atoms: C4_4  and  C5_5 
ROOT
HETATM    1  C1  UNL     1     -34.758   4.595   4.849  1.00 20.00     0.011 C 
HETATM    2  C2  UNL     1     -35.005   5.814   3.972  1.00 20.00     0.016 C 
HETATM    3  C3  UNL     1     -34.993   5.038   6.282  1.00 20.00     0.074 C 
HETATM    4  C4  UNL     1     -34.218   6.977   4.572  1.00 20.00     0.057 C 
HETATM    5  S6  UNL     1     -34.330   6.724   6.375  1.00 20.00    -0.164 SA
ENDROOT
BRANCH   4   6
HETATM    6  C5  UNL     1     -32.757   6.993   4.139  1.00 20.00     0.100 C 
HETATM    7 BR7  UNL     1     -32.649   7.098   2.203  1.00 20.00    -0.095 Br
ENDBRANCH   4   6
TORSDOF 1
