REMARK  2 active torsions:
REMARK  status: ('A' for Active; 'I' for Inactive)
REMARK    1  A    between atoms: C3_3  and  C7_7 
REMARK    2  A    between atoms: C3_3  and  C10_10 
ROOT
HETATM    1  C1  UNL     1     -33.592   9.017   0.165  1.00 20.00     0.012 C 
HETATM    2  C2  UNL     1     -32.938   8.269   0.839  1.00 20.00    -0.110 C 
HETATM    3  C10 UNL     1     -32.131   7.360   1.660  1.00 20.00     0.171 C 
ENDROOT
BRANCH   3   4
HETATM    4  C3  UNL     1     -32.924   6.170   2.161  1.00 20.00     0.144 C 
HETATM    5  O11 UNL     1     -33.447   5.346   1.411  1.00 20.00    -0.297 OA
BRANCH   4   6
HETATM    6  C7  UNL     1     -33.045   6.038   3.648  1.00 20.00     0.087 C 
HETATM    7  C6  UNL     1     -33.256   4.576   4.054  1.00 20.00     0.046 C 
HETATM    8  C8  UNL     1     -34.606   4.639   4.769  1.00 20.00     0.122 C 
HETATM    9  C4  UNL     1     -34.480   5.364   6.108  1.00 20.00     0.034 C 
HETATM   10  O12 UNL     1     -35.296   5.630   3.976  1.00 20.00    -0.380 OA
HETATM   11  C5  UNL     1     -34.309   6.820   5.671  1.00 20.00     0.035 C 
HETATM   12  C9  UNL     1     -34.333   6.700   4.148  1.00 20.00     0.133 C 
ENDBRANCH   4   6
ENDBRANCH   3   4
TORSDOF 2
