REMARK  4 active torsions:
REMARK  status: ('A' for Active; 'I' for Inactive)
REMARK    1  A    between atoms: C1_1  and  C3_3 
REMARK    2  A    between atoms: C1_1  and  C7_7 
REMARK    3  A    between atoms: C7_7  and  C8_8 
REMARK    4  A    between atoms: C8_8  and  S10_10 
ROOT
HETATM    1  C1  UNL     1     -32.865   7.325   1.887  1.00 20.00     0.132 C 
HETATM    2  O9  UNL     1     -32.295   7.246   2.975  1.00 20.00    -0.298 OA
ENDROOT
BRANCH   1   3
HETATM    3  C3  UNL     1     -32.440   8.338   0.855  1.00 20.00     0.059 A 
HETATM    4  C2  UNL     1     -33.394   9.425   0.509  1.00 20.00     0.017 A 
HETATM    5  C4  UNL     1     -33.133   8.312  -0.472  1.00 20.00    -0.007 A 
HETATM    6  C5  UNL     1     -32.342   8.572  -1.707  1.00 20.00     0.011 C 
ENDBRANCH   1   3
BRANCH   1   7
HETATM    7  C7  UNL     1     -34.031   6.418   1.541  1.00 20.00     0.088 C 
BRANCH   7   8
HETATM    8  C8  UNL     1     -34.362   5.410   2.633  1.00 20.00     0.081 C 
BRANCH   8   9
HETATM    9  S10 UNL     1     -34.769   6.220   4.210  1.00 20.00    -0.173 SA
HETATM   10  C6  UNL     1     -34.389   4.842   5.315  1.00 20.00     0.089 C 
ENDBRANCH   8   9
ENDBRANCH   7   8
ENDBRANCH   1   7
TORSDOF 4
