REMARK  0 active torsions:
REMARK  status: ('A' for Active; 'I' for Inactive)
ROOT
HETATM    1  C1  UNL     1     -33.852   5.150   2.365  1.00 20.00     0.066 C 
HETATM    2  C2  UNL     1     -33.845   7.154   3.903  1.00 20.00     0.071 C 
HETATM    3  C3  UNL     1     -34.001   4.287   3.613  1.00 20.00     0.171 C 
HETATM    4  C4  UNL     1     -31.781   6.748   2.346  1.00 20.00     0.207 A 
HETATM    5  C5  UNL     1     -33.991   6.168   5.068  1.00 20.00     0.120 C 
HETATM    6  C6  UNL     1     -33.206   6.447   2.744  1.00 20.00     0.086 A 
HETATM    7  C7  UNL     1     -34.768   6.790   6.219  1.00 20.00     0.039 C 
HETATM    8  O8  UNL     1     -34.708   5.001   4.634  1.00 20.00    -0.386 OA
HETATM    9  O9  UNL     1     -32.899   7.299   1.633  1.00 20.00    -0.375 OA
ENDROOT
TORSDOF 0
