REMARK  1 active torsions:
REMARK  status: ('A' for Active; 'I' for Inactive)
REMARK    1  A    between atoms: C4_4  and  C5_5 
ROOT
HETATM    1  C1  UNL     1     -33.711   4.516   3.572  1.00 20.00     0.016 C 
HETATM    2  C2  UNL     1     -34.693   4.426   4.728  1.00 20.00     0.074 C 
HETATM    3  C3  UNL     1     -33.461   6.792   4.409  1.00 20.00     0.079 C 
HETATM    4  C4  UNL     1     -33.688   5.981   3.137  1.00 20.00     0.009 C 
HETATM    5  S6  UNL     1     -34.422   5.938   5.692  1.00 20.00    -0.169 SA
ENDROOT
BRANCH   4   6
HETATM    6  C5  UNL     1     -32.612   6.249   2.093  1.00 20.00     0.120 C 
HETATM    7 CL7  UNL     1     -32.633   7.957   1.615  1.00 20.00    -0.130 Cl
ENDBRANCH   4   6
TORSDOF 1
