REMARK  3 active torsions:
REMARK  status: ('A' for Active; 'I' for Inactive)
REMARK    1  A    between atoms: C1_1  and  C7_7 
REMARK    2  A    between atoms: C1_1  and  C9_9 
REMARK    3  A    between atoms: C8_8  and  C9_9 
ROOT
HETATM    1  C1  UNL     1     -33.160   6.231   2.950  1.00 20.00     0.141 C 
HETATM    2  O10 UNL     1     -33.109   5.022   2.725  1.00 20.00    -0.297 OA
ENDROOT
BRANCH   1   3
HETATM    3  C7  UNL     1     -34.056   6.779   4.010  1.00 20.00     0.116 C 
HETATM    4  C3  UNL     1     -33.437   6.764   5.407  1.00 20.00     0.024 C 
HETATM    5  C2  UNL     1     -33.657   5.375   5.992  1.00 20.00     0.012 C 
HETATM    6  C6  UNL     1     -35.125   5.049   5.785  1.00 20.00     0.075 C 
HETATM    7  S11 UNL     1     -35.533   5.721   4.150  1.00 20.00    -0.157 SA
ENDBRANCH   1   3
BRANCH   1   8
HETATM    8  C9  UNL     1     -32.334   7.246   2.183  1.00 20.00     0.084 C 
BRANCH   8   9
HETATM    9  C8  UNL     1     -33.034   7.746   0.932  1.00 20.00    -0.007 A 
HETATM   10  C4  UNL     1     -33.932   8.951   0.997  1.00 20.00     0.005 A 
HETATM   11  C5  UNL     1     -32.608   9.037   0.291  1.00 20.00     0.005 A 
ENDBRANCH   8   9
ENDBRANCH   1   8
TORSDOF 3
