REMARK  0 active torsions:
REMARK  status: ('A' for Active; 'I' for Inactive)
ROOT
HETATM    1  C1  UNL     1     -34.799   4.452   4.118  1.00 20.00     0.066 C 
HETATM    2  C2  UNL     1     -33.985   6.824   3.768  1.00 20.00     0.071 C 
HETATM    3  C3  UNL     1     -33.683   4.015   3.175  1.00 20.00     0.171 C 
HETATM    4  C4  UNL     1     -35.028   6.168   6.068  1.00 20.00     0.207 A 
HETATM    5  C5  UNL     1     -32.912   6.235   2.845  1.00 20.00     0.120 C 
HETATM    6  C6  UNL     1     -34.451   5.774   4.732  1.00 20.00     0.086 A 
HETATM    7  C7  UNL     1     -32.535   7.219   1.746  1.00 20.00     0.039 C 
HETATM    8  O8  UNL     1     -33.405   5.042   2.217  1.00 20.00    -0.386 OA
HETATM    9  O9  UNL     1     -33.680   5.687   5.937  1.00 20.00    -0.375 OA
ENDROOT
TORSDOF 0
