REMARK  0 active torsions:
REMARK  status: ('A' for Active; 'I' for Inactive)
ROOT
HETATM    1  C1  UNL     1     -36.091   5.455   3.948  1.00 20.00     0.087 C 
HETATM    2  C2  UNL     1     -33.350   6.328   2.729  1.00 20.00     0.029 C 
HETATM    3  C3  UNL     1     -33.785   6.330   4.194  1.00 20.00     0.045 C 
HETATM    4  C4  UNL     1     -32.865   4.945   2.316  1.00 20.00     0.167 C 
HETATM    5  C5  UNL     1     -34.207   3.854   3.944  1.00 20.00     0.208 C 
HETATM    6  C6  UNL     1     -34.751   5.176   4.495  1.00 20.00     0.146 C 
HETATM    7  N7  UNL     1     -37.146   5.674   3.517  1.00 20.00    -0.195 NA
HETATM    8  O8  UNL     1     -33.874   3.966   2.556  1.00 20.00    -0.388 OA
HETATM    9 CL9  UNL     1     -34.965   5.032   6.271  1.00 20.00    -0.101 Cl
ENDROOT
TORSDOF 0
