REMARK  4 active torsions:
REMARK  status: ('A' for Active; 'I' for Inactive)
REMARK    1  A    between atoms: C5_5  and  C7_7 
REMARK    2  A    between atoms: C5_5  and  S9_9 
REMARK    3  A    between atoms: C6_6  and  C7_7 
REMARK    4  A    between atoms: C8_8  and  S9_9 
ROOT
HETATM    1  C5  UNL     1     -33.228   7.648   3.435  1.00 20.00     0.080 C 
ENDROOT
BRANCH   1   2
HETATM    2  C7  UNL     1     -33.350   6.645   4.597  1.00 20.00     0.004 C 
HETATM    3  C1  UNL     1     -33.554   7.411   5.911  1.00 20.00     0.012 C 
BRANCH   2   4
HETATM    4  C6  UNL     1     -34.434   5.569   4.410  1.00 20.00     0.119 C 
HETATM    5 CL10 UNL     1     -33.965   4.273   3.282  1.00 20.00    -0.130 Cl
ENDBRANCH   2   4
ENDBRANCH   1   2
BRANCH   1   6
HETATM    6  S9  UNL     1     -33.624   6.926   1.814  1.00 20.00    -0.160 SA
BRANCH   6   7
HETATM    7  C8  UNL     1     -32.791   8.147   0.775  1.00 20.00    -0.003 C 
HETATM    8  C2  UNL     1     -31.301   8.160   1.131  1.00 20.00     0.026 C 
HETATM    9  C3  UNL     1     -32.983   7.747  -0.690  1.00 20.00     0.026 C 
HETATM   10  C4  UNL     1     -33.414   9.521   1.037  1.00 20.00     0.026 C 
ENDBRANCH   6   7
ENDBRANCH   1   6
TORSDOF 4
