REMARK  4 active torsions:
REMARK  status: ('A' for Active; 'I' for Inactive)
REMARK    1  A    between atoms: C5_5  and  C7_7 
REMARK    2  A    between atoms: C5_5  and  O9_9 
REMARK    3  A    between atoms: C6_6  and  C7_7 
REMARK    4  A    between atoms: C8_8  and  O9_9 
ROOT
HETATM    1  C5  UNL     1     -33.025   5.849   2.756  1.00 20.00     0.174 C 
ENDROOT
BRANCH   1   2
HETATM    2  C7  UNL     1     -32.462   7.163   2.198  1.00 20.00     0.019 C 
HETATM    3  C1  UNL     1     -31.780   7.964   3.308  1.00 20.00     0.013 C 
BRANCH   2   4
HETATM    4  C6  UNL     1     -33.514   7.991   1.442  1.00 20.00     0.121 C 
HETATM    5 CL10 UNL     1     -32.846   9.437   0.646  1.00 20.00    -0.130 Cl
ENDBRANCH   2   4
ENDBRANCH   1   2
BRANCH   1   6
HETATM    6  O9  UNL     1     -33.591   6.045   4.045  1.00 20.00    -0.381 OA
BRANCH   6   7
HETATM    7  C8  UNL     1     -34.497   5.003   4.381  1.00 20.00     0.050 C 
HETATM    8  C2  UNL     1     -34.042   3.721   3.686  1.00 20.00     0.045 C 
HETATM    9  C3  UNL     1     -34.462   4.834   5.898  1.00 20.00     0.045 C 
HETATM   10  C4  UNL     1     -35.896   5.406   3.918  1.00 20.00     0.045 C 
ENDBRANCH   6   7
ENDBRANCH   1   6
TORSDOF 4
