REMARK  0 active torsions:
REMARK  status: ('A' for Active; 'I' for Inactive)
ROOT
HETATM    1  C1  UNL     1     -32.940   8.004   1.494  1.00 20.00     0.087 C 
HETATM    2  C2  UNL     1     -34.415   6.086   4.461  1.00 20.00     0.029 C 
HETATM    3  C3  UNL     1     -34.267   7.191   3.416  1.00 20.00     0.045 C 
HETATM    4  C4  UNL     1     -34.134   4.724   3.843  1.00 20.00     0.167 C 
HETATM    5  C5  UNL     1     -32.729   5.634   2.162  1.00 20.00     0.208 C 
HETATM    6  C6  UNL     1     -32.950   7.076   2.636  1.00 20.00     0.146 C 
HETATM    7  N7  UNL     1     -32.932   8.736   0.594  1.00 20.00    -0.195 NA
HETATM    8  O8  UNL     1     -32.843   4.701   3.239  1.00 20.00    -0.388 OA
HETATM    9 CL9  UNL     1     -31.576   7.563   3.691  1.00 20.00    -0.101 Cl
ENDROOT
TORSDOF 0
