REMARK  1 active torsions:
REMARK  status: ('A' for Active; 'I' for Inactive)
REMARK    1  A    between atoms: C4_4  and  C6_6 
ROOT
HETATM    1  C1  UNL     1     -34.635   6.284   6.051  1.00 20.00     0.135 A 
HETATM    2  C2  UNL     1     -33.563   7.129   5.864  1.00 20.00     0.136 A 
HETATM    3  C3  UNL     1     -34.544   5.682   3.847  1.00 20.00     0.144 A 
HETATM    4  C4  UNL     1     -33.472   6.527   3.660  1.00 20.00     0.069 A 
HETATM    5  N7  UNL     1     -35.144   5.545   5.045  1.00 20.00    -0.270 NA
HETATM    6  N8  UNL     1     -32.963   7.266   4.665  1.00 20.00    -0.261 NA
ENDROOT
BRANCH   4   7
HETATM    7  C6  UNL     1     -32.834   6.653   2.321  1.00 20.00     0.131 C 
HETATM    8  C5  UNL     1     -32.883   8.065   1.722  1.00 20.00     0.033 C 
HETATM    9 CL9  UNL     1     -33.580   5.498   1.164  1.00 20.00    -0.119 Cl
ENDBRANCH   4   7
TORSDOF 1
