REMARK  1 active torsions:
REMARK  status: ('A' for Active; 'I' for Inactive)
REMARK    1  A    between atoms: C1_1  and  C5_5 
ROOT
HETATM    1  C2  UNL     1     -33.819   5.042   3.514  1.00 20.00     0.022 C 
HETATM    2  C3  UNL     1     -34.759   4.300   4.449  1.00 20.00     0.075 C 
HETATM    3  C4  UNL     1     -34.124   6.809   5.170  1.00 20.00     0.085 C 
HETATM    4  C5  UNL     1     -34.131   6.525   3.675  1.00 20.00     0.057 C 
HETATM    5  S7  UNL     1     -34.851   5.333   5.936  1.00 20.00    -0.168 SA
ENDROOT
BRANCH   4   6
HETATM    6  C1  UNL     1     -33.105   7.352   2.967  1.00 20.00     0.236 C 
HETATM    7  O6  UNL     1     -32.167   6.873   2.338  1.00 20.00    -0.306 OA
ENDBRANCH   4   6
TORSDOF 1
