REMARK  1 active torsions:
REMARK  status: ('A' for Active; 'I' for Inactive)
REMARK    1  A    between atoms: C1_1  and  C5_5 
ROOT
HETATM    1  C2  UNL     1     -33.426   7.141   5.526  1.00 20.00     0.022 C 
HETATM    2  C3  UNL     1     -34.483   6.678   6.513  1.00 20.00     0.075 C 
HETATM    3  C4  UNL     1     -34.187   5.163   4.314  1.00 20.00     0.085 C 
HETATM    4  C5  UNL     1     -33.868   6.643   4.155  1.00 20.00     0.057 C 
HETATM    5  S7  UNL     1     -34.946   5.016   5.956  1.00 20.00    -0.168 SA
ENDROOT
BRANCH   4   6
HETATM    6  C1  UNL     1     -32.786   6.834   3.139  1.00 20.00     0.236 C 
HETATM    7  O6  UNL     1     -32.617   6.086   2.182  1.00 20.00    -0.306 OA
ENDBRANCH   4   6
TORSDOF 1
