REMARK  0 active torsions:
REMARK  status: ('A' for Active; 'I' for Inactive)
ROOT
HETATM    1  C1  UNL     1     -32.886   6.927   1.607  1.00 20.00     0.088 C 
HETATM    2  C2  UNL     1     -33.540   5.734   3.595  1.00 20.00    -0.046 C 
HETATM    3  C3  UNL     1     -33.456   5.805   2.259  1.00 20.00     0.098 C 
HETATM    4  C4  UNL     1     -34.140   4.555   4.311  1.00 20.00     0.039 C 
HETATM    5  C5  UNL     1     -33.069   6.838   4.499  1.00 20.00     0.202 C 
HETATM    6  C6  UNL     1     -35.160   5.040   5.341  1.00 20.00     0.030 C 
HETATM    7  C7  UNL     1     -34.578   6.156   6.205  1.00 20.00     0.168 C 
HETATM    8  N8  UNL     1     -32.421   7.842   1.067  1.00 20.00    -0.192 NA
HETATM    9  O9  UNL     1     -34.121   7.235   5.384  1.00 20.00    -0.387 OA
ENDROOT
TORSDOF 0
