REMARK  3 active torsions:
REMARK  status: ('A' for Active; 'I' for Inactive)
REMARK    1  A    between atoms: C2_2  and  C5_5 
REMARK    2  A    between atoms: C5_5  and  N7_7 
REMARK    3  A    between atoms: C6_6  and  N7_7 
ROOT
HETATM    1  C1  UNL     1     -33.139   4.768   3.950  1.00 20.00     0.052 A 
HETATM    2  C2  UNL     1     -33.308   5.891   2.964  1.00 20.00     0.055 A 
HETATM    3  C3  UNL     1     -34.163   5.845   4.210  1.00 20.00     0.119 A 
HETATM    4 CL8  UNL     1     -35.865   5.422   4.019  1.00 20.00    -0.101 Cl
HETATM    5 CL9  UNL     1     -33.871   6.961   5.537  1.00 20.00    -0.101 Cl
ENDROOT
BRANCH   2   6
HETATM    6  C5  UNL     1     -32.214   6.885   2.772  1.00 20.00     0.277 C 
BRANCH   6   7
HETATM    7  N7  UNL     1     -32.708   8.091   2.167  1.00 20.00     0.083 N 
HETATM    8  H20 UNL     1     -32.059   8.866   2.339  1.00 20.00     0.315 HD
BRANCH   7   9
HETATM    9  C6  UNL     1     -32.876   7.942   0.720  1.00 20.00     0.265 C 
HETATM   10  C4  UNL     1     -33.426   9.186   0.112  1.00 20.00     0.037 C 
ENDBRANCH   7   9
ENDBRANCH   6   7
ENDBRANCH   2   6
TORSDOF 3
