REMARK  3 active torsions:
REMARK  status: ('A' for Active; 'I' for Inactive)
REMARK    1  A    between atoms: C2_2  and  C5_5 
REMARK    2  A    between atoms: C5_5  and  N7_7 
REMARK    3  A    between atoms: C6_6  and  N7_7 
ROOT
HETATM    1  C1  UNL     1     -33.169   6.264   4.809  1.00 20.00     0.052 A 
HETATM    2  C2  UNL     1     -33.443   6.951   3.499  1.00 20.00     0.055 A 
HETATM    3  C3  UNL     1     -33.943   5.543   3.732  1.00 20.00     0.119 A 
HETATM    4 CL8  UNL     1     -33.174   4.178   2.935  1.00 20.00    -0.101 Cl
HETATM    5 CL9  UNL     1     -35.675   5.321   3.976  1.00 20.00    -0.101 Cl
ENDROOT
BRANCH   2   6
HETATM    6  C5  UNL     1     -32.316   7.265   2.574  1.00 20.00     0.277 C 
BRANCH   6   7
HETATM    7  N7  UNL     1     -32.789   7.468   1.232  1.00 20.00     0.083 N 
HETATM    8  H20 UNL     1     -32.019   7.352   0.563  1.00 20.00     0.315 HD
BRANCH   7   9
HETATM    9  C6  UNL     1     -33.353   8.807   1.055  1.00 20.00     0.265 C 
HETATM   10  C4  UNL     1     -33.873   8.992  -0.330  1.00 20.00     0.037 C 
ENDBRANCH   7   9
ENDBRANCH   6   7
ENDBRANCH   2   6
TORSDOF 3
