REMARK  3 active torsions:
REMARK  status: ('A' for Active; 'I' for Inactive)
REMARK    1  A    between atoms: C1_1  and  C3_3 
REMARK       I    between atoms: C1_1  and  N9_9 
REMARK    2  A    between atoms: C7_7  and  C8_8 
REMARK    3  A    between atoms: C8_8  and  N9_9 
ROOT
HETATM    1  C1  UNL     1     -33.333   5.950   2.723  1.00 20.00     0.222 C 
HETATM    2  N9  UNL     1     -32.583   7.076   2.441  1.00 20.00    -0.361 N 
HETATM    3  O10 UNL     1     -33.675   5.084   1.925  1.00 20.00    -0.273 OA
HETATM    4  H25 UNL     1     -32.369   7.716   3.199  1.00 20.00     0.162 HD
ENDROOT
BRANCH   1   5
HETATM    5  C3  UNL     1     -33.728   5.832   4.131  1.00 20.00     0.082 A 
HETATM    6  C2  UNL     1     -35.184   5.666   4.477  1.00 20.00     0.019 A 
HETATM    7  C4  UNL     1     -34.493   6.970   4.778  1.00 20.00    -0.005 A 
HETATM    8  C5  UNL     1     -34.205   7.359   6.187  1.00 20.00     0.011 C 
ENDBRANCH   1   5
BRANCH   2   9
HETATM    9  C8  UNL     1     -32.089   7.386   1.118  1.00 20.00     0.122 C 
BRANCH   9  10
HETATM   10  C7  UNL     1     -33.072   8.228   0.314  1.00 20.00     0.015 C 
HETATM   11  C6  UNL     1     -33.365   9.573   0.965  1.00 20.00     0.006 C 
ENDBRANCH   9  10
ENDBRANCH   2   9
TORSDOF 3
