REMARK  6 active torsions:
REMARK  status: ('A' for Active; 'I' for Inactive)
REMARK    1  A    between atoms: C5_5  and  C8_8 
REMARK    2  A    between atoms: C6_6  and  C9_9 
REMARK    3  A    between atoms: C7_7  and  C10_10 
REMARK    4  A    between atoms: C8_8  and  N11_11 
REMARK    5  A    between atoms: C9_9  and  N11_11 
REMARK    6  A    between atoms: C10_10  and  N11_11 
ROOT
HETATM    1  C1  UNL     1     -35.098   4.624   4.638  1.00 20.00     0.012 C 
HETATM    2  C2  UNL     1     -34.249   4.530   3.794  1.00 20.00    -0.116 C 
HETATM    3  C5  UNL     1     -33.207   4.412   2.762  1.00 20.00     0.123 C 
ENDROOT
BRANCH   3   4
HETATM    4  C8  UNL     1     -33.169   5.632   1.847  1.00 20.00     0.284 C 
BRANCH   4   5
HETATM    5  N11 UNL     1     -32.932   6.853   2.615  1.00 20.00     0.089 N 
BRANCH   5   6
HETATM    6  C9  UNL     1     -33.356   8.027   1.853  1.00 20.00     0.272 C 
BRANCH   6   7
HETATM    7  C6  UNL     1     -32.606   8.165   0.534  1.00 20.00     0.026 C 
HETATM    8  C3  UNL     1     -33.026   9.396  -0.256  1.00 20.00     0.007 C 
ENDBRANCH   6   7
ENDBRANCH   5   6
BRANCH   5   9
HETATM    9  C10 UNL     1     -31.519   6.962   2.978  1.00 20.00     0.272 C 
BRANCH   9  10
HETATM   10  C7  UNL     1     -31.222   8.222   3.783  1.00 20.00     0.026 C 
HETATM   11  C4  UNL     1     -31.986   8.274   5.098  1.00 20.00     0.007 C 
ENDBRANCH   9  10
ENDBRANCH   5   9
ENDBRANCH   4   5
ENDBRANCH   3   4
TORSDOF 6
