REMARK  1 active torsions:
REMARK  status: ('A' for Active; 'I' for Inactive)
REMARK       I    between atoms: C1_1  and  N9_9 
REMARK    1  A    between atoms: C6_6  and  N9_9 
ROOT
HETATM    1  C2  UNL     1     -34.447   4.259   4.117  1.00 20.00     0.002 C 
HETATM    2  C3  UNL     1     -35.520   5.347   4.091  1.00 20.00     0.002 C 
HETATM    3  C4  UNL     1     -33.348   4.723   3.165  1.00 20.00     0.031 C 
HETATM    4  C5  UNL     1     -35.017   6.416   3.125  1.00 20.00     0.031 C 
HETATM    5  C6  UNL     1     -33.494   6.247   3.098  1.00 20.00     0.029 C 
HETATM    6  C8  UNL     1     -32.825   6.935   4.292  1.00 20.00     0.038 C 
ENDROOT
BRANCH   5   7
HETATM    7  N9  UNL     1     -32.935   6.770   1.872  1.00 20.00    -0.353 N 
HETATM    8  C1  UNL     1     -32.935   8.112   1.560  1.00 20.00     0.214 C 
HETATM    9  C7  UNL     1     -32.304   8.426   0.245  1.00 20.00     0.117 C 
HETATM   10  O10 UNL     1     -33.389   9.022   2.245  1.00 20.00    -0.274 OA
HETATM   11  H25 UNL     1     -32.524   6.120   1.212  1.00 20.00     0.163 HD
ENDBRANCH   5   7
TORSDOF 1
