REMARK  4 active torsions:
REMARK  status: ('A' for Active; 'I' for Inactive)
REMARK    1  A    between atoms: C1_1  and  C6_6 
REMARK       I    between atoms: C1_1  and  N10_10 
REMARK    2  A    between atoms: C7_7  and  C8_8 
REMARK    3  A    between atoms: C7_7  and  C9_9 
REMARK    4  A    between atoms: C8_8  and  N10_10 
ROOT
HETATM    1  C1  UNL     1     -33.951   6.543   4.575  1.00 20.00     0.218 C 
HETATM    2  C5  UNL     1     -33.506   5.197   2.491  1.00 20.00     0.152 C 
HETATM    3  N10 UNL     1     -33.152   6.255   3.446  1.00 20.00    -0.356 N 
HETATM    4  O11 UNL     1     -33.693   7.421   5.403  1.00 20.00    -0.273 OA
ENDROOT
BRANCH   3   5
HETATM    5  C8  UNL     1     -31.944   6.980   3.164  1.00 20.00     0.125 C 
BRANCH   5   6
HETATM    6  C7  UNL     1     -32.190   8.207   2.290  1.00 20.00     0.024 C 
BRANCH   6   7
HETATM    7  C9  UNL     1     -32.831   7.914   0.919  1.00 20.00    -0.021 C 
HETATM    8  C3  UNL     1     -31.924   6.981   0.113  1.00 20.00     0.009 C 
HETATM    9  C4  UNL     1     -33.104   9.187   0.117  1.00 20.00     0.009 C 
ENDBRANCH   6   7
ENDBRANCH   5   6
ENDBRANCH   3   5
BRANCH   1  10
HETATM   10  C6  UNL     1     -35.197   5.682   4.729  1.00 20.00     0.098 C 
HETATM   11  C2  UNL     1     -34.940   4.416   5.531  1.00 20.00     0.014 C 
ENDBRANCH   1  10
TORSDOF 4
