REMARK  0 active torsions:
REMARK  status: ('A' for Active; 'I' for Inactive)
ROOT
HETATM    1  C1  UNL     1     -34.929   5.260   6.264  1.00 20.00     0.003 C 
HETATM    2  C2  UNL     1     -35.055   4.728   4.830  1.00 20.00     0.037 C 
HETATM    3  C3  UNL     1     -33.891   6.393   6.217  1.00 20.00     0.017 C 
HETATM    4  C4  UNL     1     -32.631   5.743   2.089  1.00 20.00     0.280 C 
HETATM    5  C5  UNL     1     -32.269   7.179   2.478  1.00 20.00     0.104 C 
HETATM    6  C6  UNL     1     -33.800   5.249   4.134  1.00 20.00     0.234 C 
HETATM    7  C7  UNL     1     -33.687   6.649   4.729  1.00 20.00     0.080 C 
HETATM    8  N8  UNL     1     -33.888   5.264   2.679  1.00 20.00     0.089 N 
HETATM    9  S9  UNL     1     -32.106   7.400   4.280  1.00 20.00    -0.160 SA
HETATM   10  H22 UNL     1     -34.650   5.876   2.388  1.00 20.00     0.316 HD
ENDROOT
TORSDOF 0
