REMARK  3 active torsions:
REMARK  status: ('A' for Active; 'I' for Inactive)
REMARK    1  A    between atoms: C1_1  and  C7_7 
REMARK       I    between atoms: C1_1  and  N9_9 
REMARK    2  A    between atoms: C4_4  and  C8_8 
REMARK    3  A    between atoms: C8_8  and  N9_9 
ROOT
HETATM    1  C1  UNL     1     -33.834   5.828   3.782  1.00 20.00     0.219 C 
HETATM    2  C6  UNL     1     -32.223   7.693   4.228  1.00 20.00     0.152 C 
HETATM    3  N9  UNL     1     -32.845   6.715   3.343  1.00 20.00    -0.356 N 
HETATM    4  O10 UNL     1     -34.002   4.705   3.300  1.00 20.00    -0.273 OA
ENDROOT
BRANCH   3   5
HETATM    5  C8  UNL     1     -32.362   6.729   1.964  1.00 20.00     0.130 C 
BRANCH   5   6
HETATM    6  C4  UNL     1     -33.164   7.661   1.122  1.00 20.00     0.004 A 
HETATM    7  C2  UNL     1     -32.903   9.141   1.170  1.00 20.00     0.007 A 
HETATM    8  C3  UNL     1     -32.532   8.352  -0.055  1.00 20.00     0.007 A 
ENDBRANCH   5   6
ENDBRANCH   3   5
BRANCH   1   9
HETATM    9  C7  UNL     1     -34.724   6.322   4.914  1.00 20.00     0.098 C 
HETATM   10  C5  UNL     1     -34.180   5.965   6.287  1.00 20.00     0.014 C 
ENDBRANCH   1   9
TORSDOF 3
