REMARK  4 active torsions:
REMARK  status: ('A' for Active; 'I' for Inactive)
REMARK    1  A    between atoms: C1_1  and  C7_7 
REMARK    2  A    between atoms: C1_1  and  O10_10 
REMARK    3  A    between atoms: C4_4  and  C7_7 
REMARK    4  A    between atoms: C8_8  and  O10_10 
ROOT
HETATM    1  C1  UNL     1     -32.507   7.094   3.317  1.00 20.00     0.259 C 
HETATM    2  O9  UNL     1     -31.684   7.382   4.174  1.00 20.00    -0.265 OA
ENDROOT
BRANCH   1   3
HETATM    3  C7  UNL     1     -32.272   7.158   1.826  1.00 20.00     0.115 C 
BRANCH   3   4
HETATM    4  C4  UNL     1     -33.243   8.097   1.133  1.00 20.00    -0.005 A 
HETATM    5  C2  UNL     1     -32.903   9.553   0.968  1.00 20.00     0.005 A 
HETATM    6  C3  UNL     1     -32.925   8.645  -0.230  1.00 20.00     0.005 A 
ENDBRANCH   3   4
ENDBRANCH   1   3
BRANCH   1   7
HETATM    7  O10 UNL     1     -33.784   6.664   3.545  1.00 20.00    -0.317 OA
BRANCH   7   8
HETATM    8  C8  UNL     1     -33.979   5.928   4.757  1.00 20.00     0.123 C 
HETATM    9  C5  UNL     1     -34.303   6.897   5.884  1.00 20.00     0.040 C 
HETATM   10  C6  UNL     1     -35.088   4.908   4.550  1.00 20.00     0.040 C 
ENDBRANCH   7   8
ENDBRANCH   1   7
TORSDOF 4
