REMARK  3 active torsions:
REMARK  status: ('A' for Active; 'I' for Inactive)
REMARK    1  A    between atoms: C5_5  and  S11_11 
REMARK    2  A    between atoms: C8_8  and  C9_9 
REMARK    3  A    between atoms: C8_8  and  S11_11 
ROOT
HETATM    1  C1  UNL     1     -34.314   6.172   5.953  1.00 20.00     0.128 C 
HETATM    2  C2  UNL     1     -34.915   4.823   5.651  1.00 20.00     0.079 C 
HETATM    3  C3  UNL     1     -33.584   6.751   4.767  1.00 20.00     0.093 C 
HETATM    4  C4  UNL     1     -34.766   4.747   4.135  1.00 20.00     0.023 C 
HETATM    5  C5  UNL     1     -33.486   5.532   3.853  1.00 20.00     0.054 C 
HETATM    6  O10 UNL     1     -34.410   6.735   7.037  1.00 20.00    -0.298 OA
ENDROOT
BRANCH   5   7
HETATM    7  S11 UNL     1     -33.325   5.995   2.109  1.00 20.00    -0.164 SA
BRANCH   7   8
HETATM    8  C8  UNL     1     -32.203   7.393   2.324  1.00 20.00     0.078 C 
BRANCH   8   9
HETATM    9  C9  UNL     1     -32.208   8.423   1.182  1.00 20.00    -0.013 C 
HETATM   10  C6  UNL     1     -31.811   7.816  -0.165  1.00 20.00     0.010 C 
HETATM   11  C7  UNL     1     -33.539   9.169   1.064  1.00 20.00     0.010 C 
ENDBRANCH   8   9
ENDBRANCH   7   8
ENDBRANCH   5   7
TORSDOF 3
