REMARK  2 active torsions:
REMARK  status: ('A' for Active; 'I' for Inactive)
REMARK    1  A    between atoms: C1_1  and  C3_3 
REMARK       I    between atoms: C1_1  and  N9_9 
REMARK    2  A    between atoms: C8_8  and  N9_9 
ROOT
HETATM    1  C1  UNL     1     -32.813   6.548   2.712  1.00 20.00     0.222 C 
HETATM    2  N9  UNL     1     -33.237   6.956   1.462  1.00 20.00    -0.357 N 
HETATM    3  O10 UNL     1     -31.944   7.077   3.394  1.00 20.00    -0.273 OA
HETATM    4  H25 UNL     1     -33.971   6.425   1.002  1.00 20.00     0.162 HD
ENDROOT
BRANCH   1   5
HETATM    5  C3  UNL     1     -33.508   5.360   3.220  1.00 20.00     0.082 A 
HETATM    6  C2  UNL     1     -35.015   5.352   3.274  1.00 20.00     0.019 A 
HETATM    7  C4  UNL     1     -34.222   5.387   4.550  1.00 20.00    -0.005 A 
HETATM    8  C5  UNL     1     -34.250   6.603   5.411  1.00 20.00     0.011 C 
ENDBRANCH   1   5
BRANCH   2   9
HETATM    9  C8  UNL     1     -32.687   8.104   0.777  1.00 20.00     0.076 C 
HETATM   10  C6  UNL     1     -33.476   9.345   1.171  1.00 20.00     0.032 C 
HETATM   11  C7  UNL     1     -32.742   7.856  -0.723  1.00 20.00     0.032 C 
ENDBRANCH   2   9
TORSDOF 2
