REMARK  3 active torsions:
REMARK  status: ('A' for Active; 'I' for Inactive)
REMARK    1  A    between atoms: C1_1  and  C6_6 
REMARK    2  A    between atoms: C1_1  and  C10_10 
REMARK    3  A    between atoms: C7_7  and  C11_11 
ROOT
HETATM    1  C2  UNL     1     -33.709   4.989   2.102  1.00 20.00     0.001 C 
HETATM    2  C3  UNL     1     -33.401   6.113   1.116  1.00 20.00     0.012 C 
HETATM    3  C4  UNL     1     -34.267   5.531   3.417  1.00 20.00     0.005 C 
HETATM    4  C5  UNL     1     -33.031   7.704   3.044  1.00 20.00     0.016 C 
HETATM    5  C6  UNL     1     -32.472   7.150   1.737  1.00 20.00     0.055 C 
HETATM    6  C7  UNL     1     -33.334   6.577   4.042  1.00 20.00    -0.014 C 
ENDROOT
BRANCH   5   7
HETATM    7  C1  UNL     1     -32.354   8.304   0.760  1.00 20.00     0.130 C 
HETATM    8  O12 UNL     1     -33.127   9.259   0.810  1.00 20.00    -0.298 OA
BRANCH   7   9
HETATM    9  C10 UNL     1     -31.238   8.201  -0.264  1.00 20.00     0.074 C 
HETATM   10  C8  UNL     1     -31.754   8.179  -1.691  1.00 20.00     0.013 C 
ENDBRANCH   7   9
ENDBRANCH   5   7
BRANCH   6  11
HETATM   11  C11 UNL     1     -33.940   7.141   5.326  1.00 20.00     0.000 C 
HETATM   12  C9  UNL     1     -34.206   6.067   6.328  1.00 20.00     0.005 C 
ENDBRANCH   6  11
TORSDOF 3
