REMARK  4 active torsions:
REMARK  status: ('A' for Active; 'I' for Inactive)
REMARK    1  A    between atoms: C1_1  and  C6_6 
REMARK    2  A    between atoms: C1_1  and  C11_11 
REMARK    3  A    between atoms: C7_7  and  C12_12 
REMARK    4  A    between atoms: C11_11  and  C13_13 
ROOT
HETATM    1  C2  UNL     1     -32.166   3.643   3.322  1.00 20.00     0.001 C 
HETATM    2  C3  UNL     1     -33.147   3.879   2.175  1.00 20.00     0.012 C 
HETATM    3  C4  UNL     1     -32.832   3.807   4.684  1.00 20.00     0.005 C 
HETATM    4  C5  UNL     1     -34.511   5.410   3.686  1.00 20.00     0.016 C 
HETATM    5  C6  UNL     1     -33.916   5.190   2.296  1.00 20.00     0.056 C 
HETATM    6  C7  UNL     1     -33.499   5.181   4.820  1.00 20.00    -0.014 C 
ENDROOT
BRANCH   5   7
HETATM    7  C1  UNL     1     -33.028   6.381   1.967  1.00 20.00     0.131 C 
HETATM    8  O14 UNL     1     -32.368   6.938   2.841  1.00 20.00    -0.298 OA
BRANCH   7   9
HETATM    9  C11 UNL     1     -32.982   6.796   0.504  1.00 20.00     0.082 C 
BRANCH   9  10
HETATM   10  C13 UNL     1     -32.097   8.022   0.235  1.00 20.00    -0.016 C 
HETATM   11  C9  UNL     1     -30.646   7.765   0.650  1.00 20.00     0.010 C 
HETATM   12  C10 UNL     1     -32.641   9.238   0.988  1.00 20.00     0.010 C 
ENDBRANCH   9  10
ENDBRANCH   7   9
ENDBRANCH   5   7
BRANCH   6  13
HETATM   13  C12 UNL     1     -34.179   5.316   6.182  1.00 20.00     0.000 C 
HETATM   14  C8  UNL     1     -34.803   6.662   6.354  1.00 20.00     0.005 C 
ENDBRANCH   6  13
TORSDOF 4
