REMARK  0 active torsions:
REMARK  status: ('A' for Active; 'I' for Inactive)
ROOT
HETATM    1  C1  UNL     1     -33.547   4.109   2.834  1.00 20.00     0.066 C 
HETATM    2  C2  UNL     1     -34.977   6.174   3.062  1.00 20.00     0.077 C 
HETATM    3  C3  UNL     1     -34.060   3.674   4.200  1.00 20.00     0.171 C 
HETATM    4  C4  UNL     1     -32.387   6.454   2.782  1.00 20.00     0.207 A 
HETATM    5  C5  UNL     1     -33.632   5.600   2.734  1.00 20.00     0.087 A 
HETATM    6  C6  UNL     1     -35.477   5.626   4.415  1.00 20.00     0.056 C 
HETATM    7  C7  UNL     1     -34.733   6.257   5.601  1.00 20.00     0.045 C 
HETATM    8  C8  UNL     1     -36.973   5.937   4.561  1.00 20.00     0.045 C 
HETATM    9  O9  UNL     1     -33.040   6.140   1.544  1.00 20.00    -0.375 OA
HETATM   10  O10 UNL     1     -35.372   4.189   4.444  1.00 20.00    -0.381 OA
ENDROOT
TORSDOF 0
