REMARK  2 active torsions:
REMARK  status: ('A' for Active; 'I' for Inactive)
REMARK    1  A    between atoms: C8_8  and  C12_12 
REMARK    2  A    between atoms: C11_11  and  N13_13 
ROOT
HETATM    1  C1  UNL     1     -33.426   8.700  -0.503  1.00 20.00     0.013 C 
HETATM    2  C2  UNL     1     -32.799   8.331   0.452  1.00 20.00    -0.087 C 
HETATM    3  C11 UNL     1     -32.028   7.883   1.615  1.00 20.00     0.364 C 
ENDROOT
BRANCH   3   4
HETATM    4  N13 UNL     1     -32.897   7.215   2.584  1.00 20.00     0.099 N 
HETATM    5  C6  UNL     1     -32.283   7.184   3.914  1.00 20.00     0.273 C 
HETATM    6  C3  UNL     1     -33.280   6.954   5.067  1.00 20.00     0.031 C 
HETATM    7  C4  UNL     1     -34.752   6.862   4.653  1.00 20.00     0.007 C 
HETATM    8  C8  UNL     1     -35.123   5.575   3.891  1.00 20.00    -0.010 C 
HETATM    9  C5  UNL     1     -33.968   4.955   3.089  1.00 20.00     0.035 C 
HETATM   10  C7  UNL     1     -33.295   5.894   2.082  1.00 20.00     0.274 C 
BRANCH   8  11
HETATM   11  C12 UNL     1     -35.676   4.525   4.863  1.00 20.00    -0.019 C 
HETATM   12  C9  UNL     1     -34.861   4.513   6.151  1.00 20.00     0.010 C 
HETATM   13  C10 UNL     1     -37.148   4.796   5.155  1.00 20.00     0.010 C 
ENDBRANCH   8  11
ENDBRANCH   3   4
TORSDOF 2
