REMARK  3 active torsions:
REMARK  status: ('A' for Active; 'I' for Inactive)
REMARK    1  A    between atoms: C1_1  and  C9_9 
REMARK    2  A    between atoms: C6_6  and  C9_9 
REMARK    3  A    between atoms: C7_7  and  C10_10 
ROOT
HETATM    1  C2  UNL     1     -33.843   5.999   5.071  1.00 20.00     0.001 C 
HETATM    2  C3  UNL     1     -33.815   6.686   3.709  1.00 20.00     0.005 C 
HETATM    3  C4  UNL     1     -34.322   4.554   4.964  1.00 20.00     0.005 C 
HETATM    4  C5  UNL     1     -33.460   4.448   2.590  1.00 20.00     0.009 C 
HETATM    5  C6  UNL     1     -32.972   5.900   2.697  1.00 20.00    -0.008 C 
HETATM    6  C7  UNL     1     -33.483   3.754   3.959  1.00 20.00    -0.014 C 
ENDROOT
BRANCH   5   7
HETATM    7  C9  UNL     1     -33.000   6.580   1.329  1.00 20.00     0.074 C 
BRANCH   7   8
HETATM    8  C1  UNL     1     -32.490   7.994   1.383  1.00 20.00     0.231 C 
HETATM    9  O11 UNL     1     -33.142   8.991   1.091  1.00 20.00    -0.307 OA
ENDBRANCH   7   8
ENDBRANCH   5   7
BRANCH   6  10
HETATM   10  C10 UNL     1     -34.012   2.326   3.832  1.00 20.00     0.000 C 
HETATM   11  C8  UNL     1     -35.416   2.302   3.324  1.00 20.00     0.005 C 
ENDBRANCH   6  10
TORSDOF 3
