REMARK  1 active torsions:
REMARK  status: ('A' for Active; 'I' for Inactive)
REMARK    1  A    between atoms: C6_6  and  C9_9 
ROOT
HETATM    1  C1  UNL     1     -34.825   6.029   4.058  1.00 20.00     0.085 C 
HETATM    2  C2  UNL     1     -32.480   5.610   2.146  1.00 20.00     0.003 C 
HETATM    3  C3  UNL     1     -33.217   6.650   1.299  1.00 20.00     0.005 C 
HETATM    4  C4  UNL     1     -32.388   5.973   3.634  1.00 20.00     0.041 C 
HETATM    5  C5  UNL     1     -33.706   8.125   3.316  1.00 20.00     0.045 C 
HETATM    6  C6  UNL     1     -33.106   8.054   1.894  1.00 20.00    -0.012 C 
HETATM    7  C7  UNL     1     -33.575   6.812   4.117  1.00 20.00     0.125 C 
HETATM    8  N10 UNL     1     -35.807   5.413   4.012  1.00 20.00    -0.195 NA
HETATM    9 CL11 UNL     1     -33.351   7.202   5.859  1.00 20.00    -0.103 Cl
ENDROOT
BRANCH   6  10
HETATM   10  C9  UNL     1     -33.754   9.093   0.981  1.00 20.00     0.000 C 
HETATM   11  C8  UNL     1     -33.146   9.083  -0.383  1.00 20.00     0.005 C 
ENDBRANCH   6  10
TORSDOF 1
