REMARK  3 active torsions:
REMARK  status: ('A' for Active; 'I' for Inactive)
REMARK    1  A    between atoms: C1_1  and  C9_9 
REMARK    2  A    between atoms: C6_6  and  C9_9 
REMARK    3  A    between atoms: C7_7  and  C10_10 
ROOT
HETATM    1  C2  UNL     1     -33.927   7.075   5.340  1.00 20.00     0.001 C 
HETATM    2  C3  UNL     1     -34.377   5.642   5.617  1.00 20.00     0.005 C 
HETATM    3  C4  UNL     1     -32.877   7.132   4.234  1.00 20.00     0.005 C 
HETATM    4  C5  UNL     1     -33.811   5.004   3.237  1.00 20.00     0.009 C 
HETATM    5  C6  UNL     1     -34.858   4.909   4.357  1.00 20.00    -0.008 C 
HETATM    6  C7  UNL     1     -33.360   6.445   2.950  1.00 20.00    -0.014 C 
ENDROOT
BRANCH   5   7
HETATM    7  C9  UNL     1     -36.229   5.411   3.897  1.00 20.00     0.074 C 
BRANCH   7   8
HETATM    8  C1  UNL     1     -37.350   4.859   4.735  1.00 20.00     0.231 C 
HETATM    9  O11 UNL     1     -37.210   4.107   5.693  1.00 20.00    -0.307 OA
ENDBRANCH   7   8
ENDBRANCH   5   7
BRANCH   6  10
HETATM   10  C10 UNL     1     -32.263   6.463   1.887  1.00 20.00     0.000 C 
HETATM   11  C8  UNL     1     -31.835   7.855   1.563  1.00 20.00     0.005 C 
ENDBRANCH   6  10
TORSDOF 3
