REMARK  3 active torsions:
REMARK  status: ('A' for Active; 'I' for Inactive)
REMARK    1  A    between atoms: C5_5  and  C9_9 
REMARK    2  A    between atoms: C6_6  and  C10_10 
REMARK    3  A    between atoms: C10_10  and  O11_11 
ROOT
HETATM    1  C1  UNL     1     -33.300   4.241   2.951  1.00 20.00     0.001 C 
HETATM    2  C2  UNL     1     -32.642   5.432   2.260  1.00 20.00     0.005 C 
HETATM    3  C3  UNL     1     -34.713   4.574   3.425  1.00 20.00     0.007 C 
HETATM    4  C4  UNL     1     -34.072   7.013   3.620  1.00 20.00     0.011 C 
HETATM    5  C5  UNL     1     -32.648   6.683   3.148  1.00 20.00    -0.014 C 
HETATM    6  C6  UNL     1     -34.771   5.829   4.307  1.00 20.00     0.014 C 
ENDROOT
BRANCH   6   7
HETATM    7  C10 UNL     1     -34.202   5.567   5.704  1.00 20.00     0.118 C 
HETATM    8  C8  UNL     1     -34.296   6.799   6.584  1.00 20.00     0.040 C 
BRANCH   7   9
HETATM    9  O11 UNL     1     -34.924   4.498   6.300  1.00 20.00    -0.396 OA
HETATM   10  H31 UNL     1     -34.540   4.357   7.181  1.00 20.00     0.210 HD
ENDBRANCH   7   9
ENDBRANCH   6   7
BRANCH   5  11
HETATM   11  C9  UNL     1     -32.041   7.872   2.403  1.00 20.00     0.000 C 
HETATM   12  C7  UNL     1     -32.830   8.218   1.183  1.00 20.00     0.005 C 
ENDBRANCH   5  11
TORSDOF 3
