REMARK  3 active torsions:
REMARK  status: ('A' for Active; 'I' for Inactive)
REMARK    1  A    between atoms: C5_5  and  C9_9 
REMARK    2  A    between atoms: C6_6  and  C10_10 
REMARK    3  A    between atoms: C6_6  and  O11_11 
ROOT
HETATM    1  C1  UNL     1     -32.816   4.716   2.246  1.00 20.00     0.003 C 
HETATM    2  C2  UNL     1     -32.900   5.737   1.116  1.00 20.00     0.005 C 
HETATM    3  C3  UNL     1     -33.993   4.846   3.213  1.00 20.00     0.038 C 
HETATM    4  C4  UNL     1     -34.190   7.310   2.620  1.00 20.00     0.042 C 
HETATM    5  C5  UNL     1     -33.003   7.170   1.651  1.00 20.00    -0.012 C 
HETATM    6  C6  UNL     1     -34.166   6.273   3.757  1.00 20.00     0.058 C 
ENDROOT
BRANCH   6   7
HETATM    7  C10 UNL     1     -35.430   6.373   4.612  1.00 20.00     0.033 C 
HETATM    8  C8  UNL     1     -35.379   5.443   5.778  1.00 20.00     0.008 C 
ENDBRANCH   6   7
BRANCH   6   9
HETATM    9  O11 UNL     1     -33.044   6.550   4.603  1.00 20.00    -0.390 OA
HETATM   10  H31 UNL     1     -33.172   7.450   4.934  1.00 20.00     0.210 HD
ENDBRANCH   6   9
BRANCH   5  11
HETATM   11  C9  UNL     1     -33.126   8.168   0.501  1.00 20.00     0.000 C 
HETATM   12  C7  UNL     1     -33.186   9.576   0.996  1.00 20.00     0.005 C 
ENDBRANCH   5  11
TORSDOF 3
