REMARK  3 active torsions:
REMARK  status: ('A' for Active; 'I' for Inactive)
REMARK    1  A    between atoms: C5_5  and  C8_8 
REMARK    2  A    between atoms: C6_6  and  C9_9 
REMARK    3  A    between atoms: C9_9  and  C10_10 
ROOT
HETATM    1  C1  UNL     1     -33.049   4.597   2.215  1.00 20.00     0.001 C 
HETATM    2  C2  UNL     1     -33.819   4.421   3.521  1.00 20.00     0.005 C 
HETATM    3  C3  UNL     1     -31.972   5.673   2.336  1.00 20.00     0.005 C 
HETATM    4  C4  UNL     1     -33.325   6.823   4.138  1.00 20.00     0.009 C 
HETATM    5  C5  UNL     1     -34.413   5.745   4.017  1.00 20.00    -0.014 C 
HETATM    6  C6  UNL     1     -32.518   7.015   2.844  1.00 20.00    -0.013 C 
ENDROOT
BRANCH   6   7
HETATM    7  C9  UNL     1     -33.334   7.738   1.769  1.00 20.00     0.020 C 
BRANCH   7   8
HETATM    8  C10 UNL     1     -32.508   8.125   0.552  1.00 20.00     0.115 C 
HETATM    9 CL11 UNL     1     -33.473   8.989  -0.667  1.00 20.00    -0.130 Cl
ENDBRANCH   7   8
ENDBRANCH   6   7
BRANCH   5  10
HETATM   10  C8  UNL     1     -35.121   5.546   5.358  1.00 20.00     0.000 C 
HETATM   11  C7  UNL     1     -34.175   5.086   6.417  1.00 20.00     0.005 C 
ENDBRANCH   5  10
TORSDOF 3
