REMARK  3 active torsions:
REMARK  status: ('A' for Active; 'I' for Inactive)
REMARK    1  A    between atoms: C6_6  and  C10_10 
REMARK    2  A    between atoms: C7_7  and  N11_11 
REMARK    3  A    between atoms: C9_9  and  N11_11 
ROOT
HETATM    1  C1  UNL     1     -33.154   8.886  -0.333  1.00 20.00     0.013 C 
HETATM    2  C2  UNL     1     -32.876   8.259   0.652  1.00 20.00    -0.087 C 
HETATM    3  C9  UNL     1     -32.533   7.499   1.857  1.00 20.00     0.362 C 
ENDROOT
BRANCH   3   4
HETATM    4  N11 UNL     1     -33.363   6.310   1.966  1.00 20.00     0.098 N 
HETATM    5  H28 UNL     1     -33.218   5.718   1.151  1.00 20.00     0.317 HD
BRANCH   4   6
HETATM    6  C7  UNL     1     -33.028   5.562   3.151  1.00 20.00     0.222 C 
HETATM    7  C4  UNL     1     -33.900   4.310   3.288  1.00 20.00     0.036 C 
HETATM    8  C3  UNL     1     -34.372   4.300   4.737  1.00 20.00     0.007 C 
HETATM    9  C6  UNL     1     -34.466   5.775   5.119  1.00 20.00    -0.013 C 
HETATM   10  C5  UNL     1     -33.241   6.380   4.431  1.00 20.00     0.040 C 
BRANCH   9  11
HETATM   11  C10 UNL     1     -35.772   6.416   4.653  1.00 20.00     0.000 C 
HETATM   12  C8  UNL     1     -36.966   5.783   5.294  1.00 20.00     0.005 C 
ENDBRANCH   9  11
ENDBRANCH   4   6
ENDBRANCH   3   4
TORSDOF 3
