REMARK  0 active torsions:
REMARK  status: ('A' for Active; 'I' for Inactive)
ROOT
HETATM    1  C1  UNL     1     -33.433   5.226   2.054  1.00 20.00     0.035 C 
HETATM    2  C2  UNL     1     -33.681   4.560   3.409  1.00 20.00     0.011 C 
HETATM    3  C3  UNL     1     -33.820   6.750   4.669  1.00 20.00     0.043 C 
HETATM    4  C4  UNL     1     -33.053   6.664   2.163  1.00 20.00     0.151 A 
HETATM    5  C5  UNL     1     -33.286   7.423   3.442  1.00 20.00     0.151 A 
HETATM    6  C6  UNL     1     -34.541   5.415   4.369  1.00 20.00    -0.045 C 
HETATM    7  C7  UNL     1     -34.728   4.643   5.689  1.00 20.00     0.015 C 
HETATM    8  C8  UNL     1     -35.936   5.685   3.772  1.00 20.00     0.015 C 
HETATM    9  O9  UNL     1     -31.978   6.954   3.058  1.00 20.00    -0.375 OA
ENDROOT
TORSDOF 0
