REMARK  4 active torsions:
REMARK  status: ('A' for Active; 'I' for Inactive)
REMARK    1  A    between atoms: C7_7  and  C10_10 
REMARK    2  A    between atoms: C8_8  and  N11_11 
REMARK    3  A    between atoms: C9_9  and  N11_11 
REMARK    4  A    between atoms: C10_10  and  N11_11 
ROOT
HETATM    1  C1  UNL     1     -32.981   8.730   1.008  1.00 20.00     0.013 C 
HETATM    2  C2  UNL     1     -32.580   8.094   1.944  1.00 20.00    -0.087 C 
HETATM    3  C9  UNL     1     -32.087   7.322   3.087  1.00 20.00     0.365 C 
ENDROOT
BRANCH   3   4
HETATM    4  N11 UNL     1     -33.023   6.252   3.430  1.00 20.00     0.104 N 
BRANCH   4   5
HETATM    5  C8  UNL     1     -33.561   5.635   2.218  1.00 20.00     0.224 A 
HETATM    6  C5  UNL     1     -32.642   4.979   1.226  1.00 20.00     0.038 A 
HETATM    7  C6  UNL     1     -33.566   4.140   2.059  1.00 20.00     0.038 A 
ENDBRANCH   4   5
BRANCH   4   8
HETATM    8  C10 UNL     1     -34.107   6.770   4.264  1.00 20.00     0.278 C 
BRANCH   8   9
HETATM    9  C7  UNL     1     -35.039   5.680   4.674  1.00 20.00     0.014 A 
HETATM   10  C3  UNL     1     -34.502   4.327   5.053  1.00 20.00     0.007 A 
HETATM   11  C4  UNL     1     -35.089   5.226   6.106  1.00 20.00     0.007 A 
ENDBRANCH   8   9
ENDBRANCH   4   8
ENDBRANCH   3   4
TORSDOF 4
