REMARK  3 active torsions:
REMARK  status: ('A' for Active; 'I' for Inactive)
REMARK    1  A    between atoms: C4_4  and  C5_5 
REMARK    2  A    between atoms: C4_4  and  C6_6 
REMARK    3  A    between atoms: C5_5  and  C7_7 
ROOT
HETATM    1  C5  UNL     1     -33.368   6.602   3.904  1.00 20.00     0.009 C 
ENDROOT
BRANCH   1   2
HETATM    2  C4  UNL     1     -33.380   6.863   2.392  1.00 20.00     0.016 C 
BRANCH   2   3
HETATM    3  C6  UNL     1     -32.362   7.936   2.020  1.00 20.00     0.114 C 
HETATM    4 CL8  UNL     1     -32.395   8.243   0.269  1.00 20.00    -0.130 Cl
ENDBRANCH   2   3
ENDBRANCH   1   2
BRANCH   1   5
HETATM    5  C7  UNL     1     -34.319   5.481   4.403  1.00 20.00    -0.051 C 
HETATM    6  C1  UNL     1     -35.789   5.827   4.113  1.00 20.00     0.014 C 
HETATM    7  C2  UNL     1     -33.979   4.131   3.751  1.00 20.00     0.014 C 
HETATM    8  C3  UNL     1     -34.141   5.345   5.928  1.00 20.00     0.014 C 
ENDBRANCH   1   5
TORSDOF 3
