REMARK  0 active torsions:
REMARK  status: ('A' for Active; 'I' for Inactive)
ROOT
HETATM    1  C1  UNL     1     -33.488   3.980   3.201  1.00 20.00     0.004 C 
HETATM    2  C2  UNL     1     -33.482   5.073   2.133  1.00 20.00     0.040 C 
HETATM    3  C3  UNL     1     -33.731   4.500   4.623  1.00 20.00     0.009 C 
HETATM    4  C4  UNL     1     -34.091   6.891   3.830  1.00 20.00     0.049 C 
HETATM    5  C5  UNL     1     -31.784   6.985   2.603  1.00 20.00     0.207 A 
HETATM    6  C6  UNL     1     -33.177   6.407   2.734  1.00 20.00     0.083 A 
HETATM    7  C7  UNL     1     -34.659   5.733   4.695  1.00 20.00    -0.045 C 
HETATM    8  C8  UNL     1     -34.752   6.197   6.163  1.00 20.00     0.015 C 
HETATM    9  C9  UNL     1     -36.083   5.362   4.234  1.00 20.00     0.015 C 
HETATM   10  O10 UNL     1     -32.861   7.419   1.765  1.00 20.00    -0.375 OA
ENDROOT
TORSDOF 0
