REMARK  2 active torsions:
REMARK  status: ('A' for Active; 'I' for Inactive)
REMARK    1  A    between atoms: C2_2  and  C9_9 
REMARK    2  A    between atoms: C9_9  and  N11_11 
ROOT
HETATM    1  C1  UNL     1     -32.713   7.924   0.954  1.00 20.00    -0.109 C 
HETATM    2  C2  UNL     1     -32.691   6.909   1.596  1.00 20.00    -0.077 C 
HETATM    3  C8  UNL     1     -32.740   9.159   0.172  1.00 20.00     0.112 C 
ENDROOT
BRANCH   2   4
HETATM    4  C9  UNL     1     -32.657   5.670   2.378  1.00 20.00     0.367 C 
BRANCH   4   5
HETATM    5  N11 UNL     1     -33.917   5.459   3.070  1.00 20.00     0.117 N 
HETATM    6  C6  UNL     1     -33.948   4.236   3.869  1.00 20.00     0.275 C 
HETATM    7  C4  UNL     1     -35.150   4.429   4.788  1.00 20.00     0.033 C 
HETATM    8  C5  UNL     1     -35.539   5.900   4.650  1.00 20.00     0.053 C 
HETATM    9  C7  UNL     1     -34.361   6.557   3.936  1.00 20.00     0.329 C 
HETATM   10  C3  UNL     1     -33.357   7.028   4.908  1.00 20.00     0.095 C 
HETATM   11  N10 UNL     1     -32.567   7.398   5.673  1.00 20.00    -0.195 NA
ENDBRANCH   4   5
ENDBRANCH   2   4
TORSDOF 2
