REMARK  0 active torsions:
REMARK  status: ('A' for Active; 'I' for Inactive)
ROOT
HETATM    1  C1  UNL     1     -33.817   5.131   2.411  1.00 20.00     0.035 C 
HETATM    2  C2  UNL     1     -34.813   5.344   3.553  1.00 20.00     0.011 C 
HETATM    3  C3  UNL     1     -33.277   6.876   4.856  1.00 20.00     0.043 C 
HETATM    4  C4  UNL     1     -32.695   6.114   2.415  1.00 20.00     0.151 A 
HETATM    5  C5  UNL     1     -32.405   6.941   3.638  1.00 20.00     0.151 A 
HETATM    6  C6  UNL     1     -34.138   5.593   4.923  1.00 20.00    -0.045 C 
HETATM    7  C7  UNL     1     -35.234   5.785   5.988  1.00 20.00     0.015 C 
HETATM    8  C8  UNL     1     -33.271   4.390   5.340  1.00 20.00     0.015 C 
HETATM    9  O9  UNL     1     -33.077   7.488   2.486  1.00 20.00    -0.375 OA
ENDROOT
TORSDOF 0
