REMARK  3 active torsions:
REMARK  status: ('A' for Active; 'I' for Inactive)
REMARK    1  A    between atoms: C6_6  and  C10_10 
REMARK    2  A    between atoms: C7_7  and  N11_11 
REMARK    3  A    between atoms: C9_9  and  N11_11 
ROOT
HETATM    1  C1  UNL     1     -32.724   9.025  -0.116  1.00 20.00     0.013 C 
HETATM    2  C2  UNL     1     -32.782   8.382   0.897  1.00 20.00    -0.087 C 
HETATM    3  C9  UNL     1     -32.853   7.602   2.135  1.00 20.00     0.362 C 
ENDROOT
BRANCH   3   4
HETATM    4  N11 UNL     1     -33.139   6.202   1.845  1.00 20.00     0.098 N 
HETATM    5  H28 UNL     1     -32.396   5.826   1.255  1.00 20.00     0.317 HD
BRANCH   4   6
HETATM    6  C7  UNL     1     -33.228   5.423   3.068  1.00 20.00     0.222 C 
HETATM    7  C4  UNL     1     -33.537   3.954   2.811  1.00 20.00     0.036 C 
HETATM    8  C3  UNL     1     -33.941   3.461   4.194  1.00 20.00     0.007 C 
HETATM    9  C6  UNL     1     -34.728   4.627   4.813  1.00 20.00    -0.013 C 
HETATM   10  C5  UNL     1     -34.379   5.866   3.970  1.00 20.00     0.040 C 
BRANCH   9  11
HETATM   11  C10 UNL     1     -34.406   4.813   6.290  1.00 20.00     0.000 C 
HETATM   12  C8  UNL     1     -32.953   5.089   6.512  1.00 20.00     0.005 C 
ENDBRANCH   9  11
ENDBRANCH   4   6
ENDBRANCH   3   4
TORSDOF 3
