REMARK  1 active torsions:
REMARK  status: ('A' for Active; 'I' for Inactive)
REMARK    1  A    between atoms: C8_8  and  N10_10 
ROOT
HETATM    1  C1  UNL     1     -32.546   7.312   1.653  1.00 20.00     0.177 C 
HETATM    2  N9  UNL     1     -31.875   7.294   0.707  1.00 20.00    -0.172 NA
HETATM    3  N10 UNL     1     -33.326   7.336   2.749  1.00 20.00    -0.324 N 
HETATM    4  H22 UNL     1     -34.247   7.792   2.717  1.00 20.00     0.172 HD
ENDROOT
BRANCH   3   5
HETATM    5  C8  UNL     1     -33.237   6.337   3.837  1.00 20.00     0.096 C 
HETATM    6  C5  UNL     1     -33.709   6.937   5.174  1.00 20.00     0.031 C 
HETATM    7  C6  UNL     1     -34.887   6.023   5.565  1.00 20.00    -0.012 C 
HETATM    8  C2  UNL     1     -34.340   4.635   5.943  1.00 20.00     0.005 C 
HETATM    9  C4  UNL     1     -35.532   5.745   4.209  1.00 20.00     0.011 C 
HETATM   10  C3  UNL     1     -33.912   4.051   4.587  1.00 20.00     0.007 C 
HETATM   11  C7  UNL     1     -34.241   5.188   3.603  1.00 20.00     0.009 C 
ENDBRANCH   3   5
TORSDOF 1
