REMARK  1 active torsions:
REMARK  status: ('A' for Active; 'I' for Inactive)
REMARK    1  A    between atoms: C2_2  and  C3_3 
ROOT
HETATM    1  C1  UNL     1     -33.837   7.089   5.281  1.00 20.00    -0.020 C 
HETATM    2  C2  UNL     1     -33.617   6.706   4.018  1.00 20.00    -0.062 C 
HETATM    3  C5  UNL     1     -34.304   5.952   6.128  1.00 20.00     0.028 C 
HETATM    4  C6  UNL     1     -33.901   5.251   3.822  1.00 20.00     0.038 C 
HETATM    5  C7  UNL     1     -34.663   4.884   5.096  1.00 20.00     0.008 C 
ENDROOT
BRANCH   2   6
HETATM    6  C3  UNL     1     -33.148   7.534   2.953  1.00 20.00     0.002 C 
HETATM    7  C4  UNL     1     -32.944   7.094   1.700  1.00 20.00    -0.030 C 
HETATM    8  C8  UNL     1     -32.450   7.955   0.585  1.00 20.00     0.036 C 
ENDBRANCH   2   6
TORSDOF 1
