REMARK  0 active torsions:
REMARK  status: ('A' for Active; 'I' for Inactive)
ROOT
HETATM    1  C1  UNL     1     -32.815   8.044   1.867  1.00 20.00     0.064 C 
HETATM    2  C2  UNL     1     -32.499   5.610   2.210  1.00 20.00     0.020 C 
HETATM    3  C3  UNL     1     -32.554   7.201   4.183  1.00 20.00     0.020 C 
HETATM    4  C4  UNL     1     -33.940   5.189   2.513  1.00 20.00     0.010 C 
HETATM    5  C5  UNL     1     -33.995   6.776   4.482  1.00 20.00     0.010 C 
HETATM    6  C6  UNL     1     -32.168   7.021   2.710  1.00 20.00     0.093 C 
HETATM    7  C7  UNL     1     -34.329   5.347   4.000  1.00 20.00    -0.048 C 
HETATM    8  C8  UNL     1     -33.601   4.300   4.865  1.00 20.00     0.015 C 
HETATM    9  C9  UNL     1     -35.844   5.111   4.148  1.00 20.00     0.015 C 
HETATM   10  N10 UNL     1     -33.324   8.849   1.204  1.00 20.00    -0.197 NA
ENDROOT
TORSDOF 0
