REMARK  3 active torsions:
REMARK  status: ('A' for Active; 'I' for Inactive)
REMARK    1  A    between atoms: C4_4  and  C6_6 
REMARK    2  A    between atoms: C5_5  and  C6_6 
REMARK    3  A    between atoms: C5_5  and  O8_8 
ROOT
HETATM    1  C1  UNL     1     -33.478   5.371   3.397  1.00 20.00     0.066 C 
HETATM    2  C6  UNL     1     -33.272   6.815   3.635  1.00 20.00     0.116 C 
HETATM    3  N7  UNL     1     -33.642   4.238   3.209  1.00 20.00    -0.197 NA
ENDROOT
BRANCH   2   4
HETATM    4  C4  UNL     1     -33.109   7.103   5.138  1.00 20.00     0.017 C 
HETATM    5  C2  UNL     1     -34.315   6.668   5.963  1.00 20.00     0.006 C 
ENDBRANCH   2   4
BRANCH   2   6
HETATM    6  C5  UNL     1     -32.033   7.296   2.870  1.00 20.00     0.186 C 
BRANCH   6   7
HETATM    7  O8  UNL     1     -32.202   7.039   1.480  1.00 20.00    -0.395 OA
HETATM    8  C3  UNL     1     -33.024   8.021   0.866  1.00 20.00     0.201 C 
ENDBRANCH   6   7
ENDBRANCH   2   6
TORSDOF 3
