REMARK  4 active torsions:
REMARK  status: ('A' for Active; 'I' for Inactive)
REMARK    1  A    between atoms: C5_5  and  C8_8 
REMARK    2  A    between atoms: C6_6  and  C7_7 
REMARK    3  A    between atoms: C6_6  and  C8_8 
REMARK    4  A    between atoms: C7_7  and  C9_9 
ROOT
HETATM    1  C6  UNL     1     -33.338   7.219   2.865  1.00 20.00     0.021 C 
ENDROOT
BRANCH   1   2
HETATM    2  C7  UNL     1     -33.346   5.746   3.304  1.00 20.00     0.010 C 
BRANCH   2   3
HETATM    3  C9  UNL     1     -34.258   5.410   4.516  1.00 20.00    -0.051 C 
HETATM    4  C2  UNL     1     -34.080   3.915   4.849  1.00 20.00     0.014 C 
HETATM    5  C3  UNL     1     -35.738   5.663   4.186  1.00 20.00     0.014 C 
HETATM    6  C4  UNL     1     -33.867   6.232   5.755  1.00 20.00     0.014 C 
ENDBRANCH   2   3
ENDBRANCH   1   2
BRANCH   1   7
HETATM    7  C8  UNL     1     -32.373   7.499   1.697  1.00 20.00     0.082 C 
HETATM    8 CL10 UNL     1     -32.844   6.545   0.254  1.00 20.00    -0.125 Cl
BRANCH   7   9
HETATM    9  C5  UNL     1     -32.351   8.998   1.361  1.00 20.00     0.016 C 
HETATM   10  C1  UNL     1     -33.713   9.554   0.963  1.00 20.00     0.006 C 
ENDBRANCH   7   9
ENDBRANCH   1   7
TORSDOF 4
