REMARK  1 active torsions:
REMARK  status: ('A' for Active; 'I' for Inactive)
REMARK    1  A    between atoms: C5_5  and  C8_8 
ROOT
HETATM    1  C1  UNL     1     -33.981   4.211   3.855  1.00 20.00     0.007 C 
HETATM    2  C2  UNL     1     -33.392   4.879   2.610  1.00 20.00     0.041 C 
HETATM    3  C3  UNL     1     -34.073   6.586   4.262  1.00 20.00     0.045 C 
HETATM    4  C4  UNL     1     -32.876   7.407   2.053  1.00 20.00     0.207 A 
HETATM    5  C5  UNL     1     -34.889   5.295   4.450  1.00 20.00    -0.012 C 
HETATM    6  C6  UNL     1     -33.294   6.319   3.009  1.00 20.00     0.083 A 
HETATM    7  O9  UNL     1     -31.963   6.855   3.010  1.00 20.00    -0.375 OA
ENDROOT
BRANCH   5   8
HETATM    8  C8  UNL     1     -35.262   5.029   5.898  1.00 20.00     0.000 C 
HETATM    9  C7  UNL     1     -34.056   4.930   6.778  1.00 20.00     0.005 C 
ENDBRANCH   5   8
TORSDOF 1
