REMARK  1 active torsions:
REMARK  status: ('A' for Active; 'I' for Inactive)
REMARK    1  A    between atoms: C4_4  and  C9_9 
ROOT
HETATM    1  C1  UNL     1     -34.592   6.000   2.817  1.00 20.00     0.006 C 
HETATM    2  C2  UNL     1     -35.467   5.407   3.925  1.00 20.00     0.016 C 
HETATM    3  C3  UNL     1     -33.860   6.990   4.859  1.00 20.00     0.021 C 
HETATM    4  C4  UNL     1     -33.325   6.474   3.523  1.00 20.00    -0.006 C 
HETATM    5  C5  UNL     1     -34.929   5.973   5.240  1.00 20.00     0.058 C 
HETATM    6 BR10 UNL     1     -34.137   4.543   6.314  1.00 20.00    -0.091 Br
ENDROOT
BRANCH   4   7
HETATM    7  C9  UNL     1     -32.563   7.529   2.738  1.00 20.00    -0.048 C 
HETATM    8  C6  UNL     1     -32.104   6.950   1.386  1.00 20.00     0.015 C 
HETATM    9  C7  UNL     1     -31.324   7.985   3.533  1.00 20.00     0.015 C 
HETATM   10  C8  UNL     1     -33.467   8.749   2.478  1.00 20.00     0.015 C 
ENDBRANCH   4   7
TORSDOF 1
