REMARK  2 active torsions:
REMARK  status: ('A' for Active; 'I' for Inactive)
REMARK    1  A    between atoms: C8_8  and  C10_10 
REMARK    2  A    between atoms: C9_9  and  C10_10 
ROOT
HETATM    1  C1  UNL     1     -33.301   9.014   0.531  1.00 20.00     0.012 C 
HETATM    2  C2  UNL     1     -32.697   8.269   1.254  1.00 20.00    -0.117 C 
HETATM    3  C9  UNL     1     -31.955   7.358   2.135  1.00 20.00     0.093 C 
ENDROOT
BRANCH   3   4
HETATM    4  C10 UNL     1     -32.740   7.105   3.408  1.00 20.00     0.017 C 
BRANCH   4   5
HETATM    5  C8  UNL     1     -34.095   6.464   3.092  1.00 20.00    -0.007 C 
HETATM    6  C5  UNL     1     -34.915   6.248   4.367  1.00 20.00     0.082 C 
HETATM    7  C3  UNL     1     -34.395   5.074   5.169  1.00 20.00     0.127 C 
HETATM    8  C4  UNL     1     -34.188   3.781   4.414  1.00 20.00     0.078 C 
HETATM    9  O11 UNL     1     -34.245   5.141   6.388  1.00 20.00    -0.298 OA
HETATM   10  C6  UNL     1     -33.365   4.019   3.157  1.00 20.00     0.008 C 
HETATM   11  C7  UNL     1     -33.938   5.152   2.307  1.00 20.00     0.005 C 
ENDBRANCH   4   5
ENDBRANCH   3   4
TORSDOF 2
