REMARK  2 active torsions:
REMARK  status: ('A' for Active; 'I' for Inactive)
REMARK    1  A    between atoms: C4_4  and  C10_10 
REMARK    2  A    between atoms: C8_8  and  C10_10 
ROOT
HETATM    1  C5  UNL     1     -33.948   5.889   5.654  1.00 20.00     0.006 C 
HETATM    2  C6  UNL     1     -35.240   5.084   5.665  1.00 20.00     0.020 C 
HETATM    3  C7  UNL     1     -34.968   5.921   3.425  1.00 20.00     0.025 C 
HETATM    4  C8  UNL     1     -34.030   6.707   4.359  1.00 20.00    -0.009 C 
HETATM    5  C9  UNL     1     -35.366   4.670   4.207  1.00 20.00     0.082 C 
HETATM    6 CL12 UNL     1     -36.994   4.106   3.806  1.00 20.00    -0.125 Cl
ENDROOT
BRANCH   4   7
HETATM    7  C10 UNL     1     -32.661   6.965   3.748  1.00 20.00     0.043 C 
BRANCH   7   8
HETATM    8  C4  UNL     1     -32.756   7.776   2.482  1.00 20.00    -0.051 A 
HETATM    9  C1  UNL     1     -33.349   9.069   2.410  1.00 20.00     0.014 A 
HETATM   10  C2  UNL     1     -33.306   9.588   1.135  1.00 20.00     0.050 A 
HETATM   11  S11 UNL     1     -32.551   8.518   0.031  1.00 20.00    -0.113 SA
HETATM   12  C3  UNL     1     -32.281   7.356   1.259  1.00 20.00     0.056 A 
ENDBRANCH   7   8
ENDBRANCH   4   7
TORSDOF 2
