REMARK  1 active torsions:
REMARK  status: ('A' for Active; 'I' for Inactive)
REMARK    1  A    between atoms: C9_9  and  C10_10 
ROOT
HETATM    1  C1  UNL     1     -33.032   9.282   0.086  1.00 20.00     0.012 C 
HETATM    2  C2  UNL     1     -32.674   8.205   0.478  1.00 20.00    -0.117 C 
HETATM    3  C10 UNL     1     -32.224   6.893   0.943  1.00 20.00     0.098 C 
ENDROOT
BRANCH   3   4
HETATM    4  C9  UNL     1     -33.127   6.377   2.069  1.00 20.00     0.004 C 
HETATM    5  C5  UNL     1     -32.770   7.072   3.389  1.00 20.00     0.083 C 
HETATM    6  C3  UNL     1     -33.742   6.823   4.531  1.00 20.00     0.127 C 
HETATM    7  C4  UNL     1     -35.061   6.144   4.233  1.00 20.00     0.078 C 
HETATM    8  O11 UNL     1     -33.468   7.191   5.675  1.00 20.00    -0.298 OA
HETATM    9  C6  UNL     1     -34.925   4.660   3.901  1.00 20.00     0.007 C 
HETATM   10  C7  UNL     1     -33.551   4.191   3.427  1.00 20.00     0.001 C 
HETATM   11  C8  UNL     1     -33.035   4.843   2.144  1.00 20.00     0.006 C 
ENDBRANCH   3   4
TORSDOF 1
