REMARK  4 active torsions:
REMARK  status: ('A' for Active; 'I' for Inactive)
REMARK    1  A    between atoms: C1_1  and  C6_6 
REMARK    2  A    between atoms: C1_1  and  C8_8 
REMARK    3  A    between atoms: C7_7  and  C9_9 
REMARK    4  A    between atoms: C8_8  and  C9_9 
ROOT
HETATM    1  C1  UNL     1     -33.491   5.416   3.295  1.00 20.00     0.131 C 
HETATM    2  O10 UNL     1     -33.449   4.822   2.219  1.00 20.00    -0.298 OA
ENDROOT
BRANCH   1   3
HETATM    3  C6  UNL     1     -34.325   4.895   4.437  1.00 20.00     0.055 A 
HETATM    4  C2  UNL     1     -34.245   5.602   5.741  1.00 20.00     0.013 A 
HETATM    5  C3  UNL     1     -35.476   5.717   4.892  1.00 20.00     0.013 A 
ENDBRANCH   1   3
BRANCH   1   6
HETATM    6  C8  UNL     1     -32.723   6.699   3.560  1.00 20.00     0.079 C 
BRANCH   6   7
HETATM    7  C9  UNL     1     -31.936   7.172   2.341  1.00 20.00     0.012 C 
BRANCH   7   8
HETATM    8  C7  UNL     1     -32.847   7.412   1.149  1.00 20.00    -0.014 A 
HETATM    9  C4  UNL     1     -33.470   8.763   0.932  1.00 20.00     0.005 A 
HETATM   10  C5  UNL     1     -32.388   8.278   0.008  1.00 20.00     0.005 A 
ENDBRANCH   7   8
ENDBRANCH   6   7
ENDBRANCH   1   6
TORSDOF 4
