REMARK  3 active torsions:
REMARK  status: ('A' for Active; 'I' for Inactive)
REMARK    1  A    between atoms: C6_6  and  C9_9 
REMARK    2  A    between atoms: C7_7  and  O10_10 
REMARK    3  A    between atoms: C8_8  and  C9_9 
ROOT
HETATM    1  C1  UNL     1     -33.352   9.244   0.706  1.00 20.00     0.012 C 
HETATM    2  C2  UNL     1     -32.774   8.247   1.042  1.00 20.00    -0.117 C 
HETATM    3  C8  UNL     1     -32.066   7.026   1.449  1.00 20.00     0.093 C 
ENDROOT
BRANCH   3   4
HETATM    4  C9  UNL     1     -31.892   6.991   2.958  1.00 20.00     0.017 C 
BRANCH   4   5
HETATM    5  C6  UNL     1     -33.237   7.016   3.664  1.00 20.00    -0.011 C 
HETATM    6  C3  UNL     1     -33.113   7.029   5.185  1.00 20.00     0.007 C 
HETATM    7  C4  UNL     1     -34.488   6.560   5.638  1.00 20.00     0.032 C 
HETATM    8  C7  UNL     1     -34.815   5.431   4.666  1.00 20.00     0.118 C 
HETATM    9  C5  UNL     1     -34.107   5.788   3.355  1.00 20.00     0.036 C 
BRANCH   8  10
HETATM   10  O10 UNL     1     -34.278   4.206   5.155  1.00 20.00    -0.396 OA
HETATM   11  H24 UNL     1     -34.511   3.523   4.506  1.00 20.00     0.210 HD
ENDBRANCH   8  10
ENDBRANCH   4   5
ENDBRANCH   3   4
TORSDOF 3
