REMARK  1 active torsions:
REMARK  status: ('A' for Active; 'I' for Inactive)
REMARK    1  A    between atoms: C7_7  and  C9_9 
ROOT
HETATM    1  C1  UNL     1     -32.814   8.511   0.407  1.00 20.00     0.012 C 
HETATM    2  C2  UNL     1     -32.590   7.532   1.065  1.00 20.00    -0.117 C 
HETATM    3  C9  UNL     1     -32.306   6.337   1.864  1.00 20.00     0.097 C 
ENDROOT
BRANCH   3   4
HETATM    4  C7  UNL     1     -33.532   5.913   2.671  1.00 20.00    -0.002 C 
HETATM    5  C4  UNL     1     -33.696   6.799   3.913  1.00 20.00     0.005 C 
HETATM    6  C3  UNL     1     -34.886   6.362   4.765  1.00 20.00     0.002 C 
HETATM    7  C5  UNL     1     -34.793   4.888   5.149  1.00 20.00     0.020 C 
HETATM    8  C8  UNL     1     -34.636   4.004   3.912  1.00 20.00     0.082 C 
HETATM    9  C6  UNL     1     -33.436   4.431   3.064  1.00 20.00     0.025 C 
HETATM   10 CL10 UNL     1     -34.453   2.297   4.406  1.00 20.00    -0.125 Cl
ENDBRANCH   3   4
TORSDOF 1
