REMARK  1 active torsions:
REMARK  status: ('A' for Active; 'I' for Inactive)
REMARK    1  A    between atoms: C6_6  and  C7_7 
ROOT
HETATM    1  C3  UNL     1     -32.057   7.003   3.404  1.00 20.00     0.006 C 
HETATM    2  C4  UNL     1     -32.984   6.968   4.621  1.00 20.00     0.020 C 
HETATM    3  C5  UNL     1     -34.375   7.377   2.739  1.00 20.00     0.025 C 
HETATM    4  C7  UNL     1     -32.967   7.161   2.175  1.00 20.00    -0.009 C 
HETATM    5  C8  UNL     1     -34.366   6.638   4.072  1.00 20.00     0.082 C 
HETATM    6 CL9  UNL     1     -34.551   4.878   3.832  1.00 20.00    -0.125 Cl
ENDROOT
BRANCH   4   7
HETATM    7  C6  UNL     1     -32.528   8.284   1.248  1.00 20.00    -0.010 A 
HETATM    8  C1  UNL     1     -32.993   8.312  -0.182  1.00 20.00     0.005 A 
HETATM    9  C2  UNL     1     -33.516   9.324   0.799  1.00 20.00     0.005 A 
ENDBRANCH   4   7
TORSDOF 1
