REMARK  1 active torsions:
REMARK  status: ('A' for Active; 'I' for Inactive)
REMARK    1  A    between atoms: C7_7  and  C8_8 
ROOT
HETATM    1  C1  UNL     1     -33.179   9.208   1.579  1.00 20.00     0.012 C 
HETATM    2  C2  UNL     1     -32.868   8.056   1.706  1.00 20.00    -0.117 C 
HETATM    3  C8  UNL     1     -32.484   6.647   1.859  1.00 20.00     0.098 C 
ENDROOT
BRANCH   3   4
HETATM    4  C7  UNL     1     -33.554   5.860   2.596  1.00 20.00     0.004 C 
HETATM    5  C5  UNL     1     -33.801   6.377   4.015  1.00 20.00     0.083 C 
HETATM    6  C3  UNL     1     -34.333   5.145   4.702  1.00 20.00     0.127 C 
HETATM    7  C4  UNL     1     -34.137   3.901   3.876  1.00 20.00     0.079 C 
HETATM    8  O9  UNL     1     -34.866   5.156   5.805  1.00 20.00    -0.298 OA
HETATM    9  C6  UNL     1     -33.177   4.391   2.799  1.00 20.00     0.013 C 
ENDBRANCH   3   4
TORSDOF 1
