REMARK  6 active torsions:
REMARK  status: ('A' for Active; 'I' for Inactive)
REMARK    1  A    between atoms: C3_3  and  C10_10 
REMARK    2  A    between atoms: C6_6  and  C11_11 
REMARK    3  A    between atoms: C7_7  and  C8_8 
REMARK    4  A    between atoms: C7_7  and  C9_9 
REMARK    5  A    between atoms: C8_8  and  C10_10 
REMARK    6  A    between atoms: C9_9  and  C11_11 
ROOT
HETATM    1  C7  UNL     1     -32.358   7.352   3.571  1.00 20.00     0.002 C 
ENDROOT
BRANCH   1   2
HETATM    2  C8  UNL     1     -33.362   6.735   4.555  1.00 20.00     0.020 C 
BRANCH   2   3
HETATM    3  C10 UNL     1     -34.283   5.654   3.970  1.00 20.00     0.086 C 
HETATM    4 CL12 UNL     1     -33.349   4.364   3.160  1.00 20.00    -0.125 Cl
BRANCH   3   5
HETATM    5  C3  UNL     1     -35.200   5.036   4.983  1.00 20.00     0.004 A 
HETATM    6  C1  UNL     1     -34.636   4.323   6.181  1.00 20.00     0.006 A 
HETATM    7  C2  UNL     1     -35.335   5.643   6.352  1.00 20.00     0.006 A 
ENDBRANCH   3   5
ENDBRANCH   2   3
ENDBRANCH   1   2
BRANCH   1   8
HETATM    8  C9  UNL     1     -33.082   8.078   2.432  1.00 20.00     0.004 C 
BRANCH   8   9
HETATM    9  C11 UNL     1     -32.130   8.800   1.457  1.00 20.00    -0.019 C 
HETATM   10  C5  UNL     1     -31.237   7.772   0.753  1.00 20.00     0.010 C 
BRANCH   9  11
HETATM   11  C6  UNL     1     -32.838   9.716   0.439  1.00 20.00    -0.000 C 
HETATM   12  C4  UNL     1     -33.814   9.016  -0.498  1.00 20.00     0.005 C 
ENDBRANCH   9  11
ENDBRANCH   8   9
ENDBRANCH   1   8
TORSDOF 6
