REMARK  4 active torsions:
REMARK  status: ('A' for Active; 'I' for Inactive)
REMARK    1  A    between atoms: C4_4  and  C8_8 
REMARK    2  A    between atoms: C5_5  and  C9_9 
REMARK    3  A    between atoms: C5_5  and  O11_11 
REMARK    4  A    between atoms: C9_9  and  C10_10 
ROOT
HETATM    1  C1  UNL     1     -31.892   6.008   2.444  1.00 20.00     0.007 C 
HETATM    2  C2  UNL     1     -32.863   5.380   3.451  1.00 20.00     0.038 C 
HETATM    3  C3  UNL     1     -33.800   7.476   2.786  1.00 20.00     0.042 C 
HETATM    4  C4  UNL     1     -32.389   7.438   2.192  1.00 20.00    -0.012 C 
HETATM    5  C5  UNL     1     -33.697   6.542   3.990  1.00 20.00     0.058 C 
ENDROOT
BRANCH   5   6
HETATM    6  C9  UNL     1     -35.052   6.115   4.530  1.00 20.00     0.037 C 
BRANCH   6   7
HETATM    7  C10 UNL     1     -34.963   4.783   5.273  1.00 20.00    -0.002 C 
HETATM    8  C7  UNL     1     -33.988   4.859   6.436  1.00 20.00     0.005 C 
ENDBRANCH   6   7
ENDBRANCH   5   6
BRANCH   5   9
HETATM    9  O11 UNL     1     -32.976   7.206   5.028  1.00 20.00    -0.390 OA
HETATM   10  H31 UNL     1     -33.543   7.930   5.335  1.00 20.00     0.210 HD
ENDBRANCH   5   9
BRANCH   4  11
HETATM   11  C8  UNL     1     -32.353   7.835   0.725  1.00 20.00     0.000 C 
HETATM   12  C6  UNL     1     -32.850   9.230   0.512  1.00 20.00     0.005 C 
ENDBRANCH   4  11
TORSDOF 4
