REMARK  5 active torsions:
REMARK  status: ('A' for Active; 'I' for Inactive)
REMARK    1  A    between atoms: C6_6  and  C7_7 
REMARK    2  A    between atoms: C7_7  and  C8_8 
REMARK    3  A    between atoms: C8_8  and  C9_9 
REMARK    4  A    between atoms: C9_9  and  C10_10 
REMARK    5  A    between atoms: C10_10  and  C11_11 
ROOT
HETATM    1  C1  UNL     1     -32.989   7.623  -1.516  1.00 20.00     0.012 C 
HETATM    2  C2  UNL     1     -33.029   8.379  -0.584  1.00 20.00    -0.117 C 
HETATM    3  C6  UNL     1     -33.079   9.307   0.554  1.00 20.00     0.093 C 
ENDROOT
BRANCH   3   4
HETATM    4  C7  UNL     1     -33.323   8.587   1.882  1.00 20.00     0.012 C 
BRANCH   4   5
HETATM    5  C8  UNL     1     -32.194   7.615   2.248  1.00 20.00     0.002 C 
BRANCH   5   6
HETATM    6  C9  UNL     1     -32.503   6.882   3.564  1.00 20.00     0.021 C 
BRANCH   6   7
HETATM    7  C10 UNL     1     -33.843   6.116   3.541  1.00 20.00     0.089 C 
HETATM    8 CL12 UNL     1     -33.864   5.017   2.109  1.00 20.00    -0.124 Cl
BRANCH   7   9
HETATM    9  C11 UNL     1     -34.180   5.343   4.863  1.00 20.00    -0.035 C 
HETATM   10  C3  UNL     1     -35.528   4.601   4.718  1.00 20.00     0.016 C 
HETATM   11  C4  UNL     1     -33.105   4.270   5.150  1.00 20.00     0.016 C 
HETATM   12  C5  UNL     1     -34.276   6.277   6.084  1.00 20.00     0.016 C 
ENDBRANCH   7   9
ENDBRANCH   6   7
ENDBRANCH   5   6
ENDBRANCH   4   5
ENDBRANCH   3   4
TORSDOF 5
