REMARK  1 active torsions:
REMARK  status: ('A' for Active; 'I' for Inactive)
REMARK    1  A    between atoms: C4_4  and  C8_8 
ROOT
HETATM    1  C1  UNL     1     -34.866   5.056   5.962  1.00 20.00     0.135 A 
HETATM    2  C2  UNL     1     -34.596   6.382   6.219  1.00 20.00     0.136 A 
HETATM    3  C3  UNL     1     -34.167   5.333   3.802  1.00 20.00     0.143 A 
HETATM    4  C4  UNL     1     -33.898   6.659   4.059  1.00 20.00     0.056 A 
HETATM    5  N10 UNL     1     -34.656   4.507   4.748  1.00 20.00    -0.270 NA
HETATM    6  N11 UNL     1     -34.107   7.207   5.273  1.00 20.00    -0.262 NA
ENDROOT
BRANCH   4   7
HETATM    7  C8  UNL     1     -33.350   7.556   2.972  1.00 20.00     0.041 C 
HETATM    8  C5  UNL     1     -31.993   7.103   2.391  1.00 20.00     0.012 C 
HETATM    9  C6  UNL     1     -32.223   6.913   0.892  1.00 20.00     0.021 C 
HETATM   10  C9  UNL     1     -33.386   7.837   0.556  1.00 20.00     0.083 C 
HETATM   11  C7  UNL     1     -34.300   7.673   1.765  1.00 20.00     0.031 C 
HETATM   12 CL12 UNL     1     -32.834   9.528   0.398  1.00 20.00    -0.125 Cl
ENDBRANCH   4   7
TORSDOF 1
