REMARK  1 active torsions:
REMARK  status: ('A' for Active; 'I' for Inactive)
REMARK    1  A    between atoms: C7_7  and  C9_9 
ROOT
HETATM    1  C1  UNL     1     -33.210   8.227   0.397  1.00 20.00     0.012 C 
HETATM    2  C2  UNL     1     -32.573   7.888   1.357  1.00 20.00    -0.117 C 
HETATM    3  C9  UNL     1     -31.787   7.483   2.525  1.00 20.00     0.097 C 
ENDROOT
BRANCH   3   4
HETATM    4  C7  UNL     1     -32.564   6.491   3.390  1.00 20.00    -0.002 C 
HETATM    5  C4  UNL     1     -32.868   5.211   2.600  1.00 20.00     0.005 C 
HETATM    6  C3  UNL     1     -33.697   4.222   3.417  1.00 20.00     0.002 C 
HETATM    7  C5  UNL     1     -34.981   4.862   3.943  1.00 20.00     0.020 C 
HETATM    8  C8  UNL     1     -34.730   6.158   4.716  1.00 20.00     0.082 C 
HETATM    9  C6  UNL     1     -33.859   7.131   3.915  1.00 20.00     0.025 C 
HETATM   10 CL10 UNL     1     -33.972   5.803   6.302  1.00 20.00    -0.125 Cl
ENDBRANCH   3   4
TORSDOF 1
