REMARK  4 active torsions:
REMARK  status: ('A' for Active; 'I' for Inactive)
REMARK    1  A    between atoms: C4_4  and  C6_6 
REMARK    2  A    between atoms: C5_5  and  C8_8 
REMARK    3  A    between atoms: C6_6  and  C7_7 
REMARK    4  A    between atoms: C7_7  and  C8_8 
ROOT
HETATM    1  C1  UNL     1     -32.692   8.338  -1.689  1.00 20.00     0.012 C 
HETATM    2  C2  UNL     1     -32.839   8.282  -0.499  1.00 20.00    -0.117 C 
HETATM    3  C4  UNL     1     -33.023   8.217   0.957  1.00 20.00     0.093 C 
ENDROOT
BRANCH   3   4
HETATM    4  C6  UNL     1     -31.981   7.323   1.634  1.00 20.00     0.014 C 
BRANCH   4   5
HETATM    5  C7  UNL     1     -32.112   7.313   3.165  1.00 20.00     0.021 C 
BRANCH   5   6
HETATM    6  C8  UNL     1     -33.485   6.818   3.647  1.00 20.00     0.082 C 
HETATM    7 CL9  UNL     1     -33.622   6.958   5.429  1.00 20.00    -0.125 Cl
BRANCH   6   8
HETATM    8  C5  UNL     1     -33.794   5.379   3.201  1.00 20.00     0.016 C 
HETATM    9  C3  UNL     1     -32.810   4.318   3.679  1.00 20.00     0.006 C 
ENDBRANCH   6   8
ENDBRANCH   5   6
ENDBRANCH   4   5
ENDBRANCH   3   4
TORSDOF 4
