REMARK  2 active torsions:
REMARK  status: ('A' for Active; 'I' for Inactive)
REMARK    1  A    between atoms: C6_6  and  C9_9 
REMARK    2  A    between atoms: C8_8  and  C9_9 
ROOT
HETATM    1  C1  UNL     1     -33.437   9.061  -0.362  1.00 20.00     0.012 C 
HETATM    2  C2  UNL     1     -33.243   8.487   0.674  1.00 20.00    -0.117 C 
HETATM    3  C8  UNL     1     -33.003   7.788   1.944  1.00 20.00     0.093 C 
ENDROOT
BRANCH   3   4
HETATM    4  C9  UNL     1     -33.469   6.345   1.850  1.00 20.00     0.017 C 
BRANCH   4   5
HETATM    5  C6  UNL     1     -33.229   5.608   3.159  1.00 20.00    -0.012 C 
HETATM    6  C3  UNL     1     -34.011   6.221   4.328  1.00 20.00     0.006 C 
HETATM    7  C4  UNL     1     -34.325   5.034   5.227  1.00 20.00     0.020 C 
HETATM    8  C7  UNL     1     -34.684   3.958   4.214  1.00 20.00     0.082 C 
HETATM    9  C5  UNL     1     -33.649   4.128   3.103  1.00 20.00     0.024 C 
HETATM   10 CL10 UNL     1     -34.663   2.335   4.920  1.00 20.00    -0.125 Cl
ENDBRANCH   4   5
ENDBRANCH   3   4
TORSDOF 2
