REMARK  1 active torsions:
REMARK  status: ('A' for Active; 'I' for Inactive)
REMARK    1  A    between atoms: C6_6  and  C7_7 
ROOT
HETATM    1  C1  UNL     1     -35.077   4.856   5.423  1.00 20.00     0.002 C 
HETATM    2  C2  UNL     1     -35.358   5.735   4.200  1.00 20.00     0.006 C 
HETATM    3  C5  UNL     1     -34.104   5.638   6.307  1.00 20.00     0.020 C 
HETATM    4  C7  UNL     1     -34.255   6.802   4.195  1.00 20.00     0.008 C 
HETATM    5  C8  UNL     1     -34.060   7.035   5.697  1.00 20.00     0.086 C 
HETATM    6 CL9  UNL     1     -32.594   7.923   6.140  1.00 20.00    -0.125 Cl
ENDROOT
BRANCH   4   7
HETATM    7  C6  UNL     1     -33.034   6.319   3.453  1.00 20.00    -0.009 A 
HETATM    8  C3  UNL     1     -32.952   6.457   1.958  1.00 20.00     0.005 A 
HETATM    9  C4  UNL     1     -32.081   7.307   2.841  1.00 20.00     0.005 A 
ENDBRANCH   4   7
TORSDOF 1
