REMARK  2 active torsions:
REMARK  status: ('A' for Active; 'I' for Inactive)
REMARK    1  A    between atoms: C7_7  and  C10_10 
REMARK    2  A    between atoms: C9_9  and  C10_10 
ROOT
HETATM    1  C1  UNL     1     -32.731   9.593   0.182  1.00 20.00     0.012 C 
HETATM    2  C2  UNL     1     -32.951   8.621   0.851  1.00 20.00    -0.117 C 
HETATM    3  C9  UNL     1     -33.218   7.429   1.667  1.00 20.00     0.093 C 
ENDROOT
BRANCH   3   4
HETATM    4  C10 UNL     1     -33.501   7.831   3.102  1.00 20.00     0.017 C 
BRANCH   4   5
HETATM    5  C7  UNL     1     -33.769   6.600   3.966  1.00 20.00    -0.012 C 
HETATM    6  C4  UNL     1     -33.615   6.921   5.454  1.00 20.00     0.005 C 
HETATM    7  C3  UNL     1     -33.766   5.668   6.322  1.00 20.00     0.002 C 
HETATM    8  C5  UNL     1     -34.723   4.625   5.738  1.00 20.00     0.020 C 
HETATM    9  C8  UNL     1     -35.782   5.276   4.855  1.00 20.00     0.082 C 
HETATM   10  C6  UNL     1     -35.158   6.006   3.658  1.00 20.00     0.024 C 
HETATM   11 CL11 UNL     1     -36.958   4.058   4.288  1.00 20.00    -0.125 Cl
ENDBRANCH   4   5
ENDBRANCH   3   4
TORSDOF 2
