REMARK  2 active torsions:
REMARK  status: ('A' for Active; 'I' for Inactive)
REMARK    1  A    between atoms: C8_8  and  C10_10 
REMARK    2  A    between atoms: C9_9  and  O11_11 
ROOT
HETATM    1  C1  UNL     1     -33.283   9.609   0.782  1.00 20.00     0.012 C 
HETATM    2  C2  UNL     1     -33.142   8.505   1.232  1.00 20.00    -0.117 C 
HETATM    3  C10 UNL     1     -32.961   7.154   1.765  1.00 20.00     0.097 C 
ENDROOT
BRANCH   3   4
HETATM    4  C8  UNL     1     -33.586   7.032   3.161  1.00 20.00    -0.001 C 
HETATM    5  C5  UNL     1     -32.657   7.703   4.183  1.00 20.00     0.005 C 
HETATM    6  C3  UNL     1     -32.892   7.391   5.659  1.00 20.00     0.000 C 
HETATM    7  C4  UNL     1     -34.351   7.228   6.068  1.00 20.00     0.002 C 
HETATM    8  C6  UNL     1     -34.859   5.804   5.863  1.00 20.00     0.032 C 
HETATM    9  C9  UNL     1     -35.097   5.392   4.412  1.00 20.00     0.118 C 
HETATM   10  C7  UNL     1     -33.899   5.563   3.474  1.00 20.00     0.037 C 
BRANCH   9  11
HETATM   11  O11 UNL     1     -35.455   4.007   4.400  1.00 20.00    -0.396 OA
HETATM   12  H27 UNL     1     -36.260   3.932   4.932  1.00 20.00     0.210 HD
ENDBRANCH   9  11
ENDBRANCH   3   4
TORSDOF 2
