REMARK  1 active torsions:
REMARK  status: ('A' for Active; 'I' for Inactive)
REMARK    1  A    between atoms: C4_4  and  C7_7 
ROOT
HETATM    1  C1  UNL     1     -33.668   5.311   2.475  1.00 20.00     0.006 C 
HETATM    2  C2  UNL     1     -33.998   4.374   3.641  1.00 20.00     0.020 C 
HETATM    3  C3  UNL     1     -33.603   6.535   4.572  1.00 20.00     0.024 C 
HETATM    4  C4  UNL     1     -33.655   6.733   3.056  1.00 20.00    -0.013 C 
HETATM    5  C5  UNL     1     -34.462   5.294   4.763  1.00 20.00     0.082 C 
HETATM    6 CL8  UNL     1     -34.250   4.568   6.363  1.00 20.00    -0.125 Cl
ENDROOT
BRANCH   4   7
HETATM    7  C7  UNL     1     -32.513   7.586   2.529  1.00 20.00     0.000 C 
HETATM    8  C6  UNL     1     -32.587   7.760   1.046  1.00 20.00     0.005 C 
ENDBRANCH   4   7
TORSDOF 1
