REMARK  3 active torsions:
REMARK  status: ('A' for Active; 'I' for Inactive)
REMARK    1  A    between atoms: C2_2  and  C9_9 
REMARK    2  A    between atoms: C6_6  and  C9_9 
REMARK    3  A    between atoms: C7_7  and  O10_10 
ROOT
HETATM    1  C1  UNL     1     -32.925   8.458   1.432  1.00 20.00    -0.111 C 
HETATM    2  C2  UNL     1     -32.899   7.709   2.371  1.00 20.00    -0.107 C 
HETATM    3  C8  UNL     1     -32.958   9.369   0.290  1.00 20.00     0.112 C 
ENDROOT
BRANCH   2   4
HETATM    4  C9  UNL     1     -32.864   6.791   3.516  1.00 20.00     0.098 C 
BRANCH   4   5
HETATM    5  C6  UNL     1     -33.571   7.392   4.729  1.00 20.00    -0.001 C 
HETATM    6  C3  UNL     1     -33.198   6.684   6.030  1.00 20.00     0.008 C 
HETATM    7  C4  UNL     1     -34.093   5.451   6.069  1.00 20.00     0.032 C 
HETATM    8  C7  UNL     1     -35.356   5.833   5.295  1.00 20.00     0.118 C 
HETATM    9  C5  UNL     1     -35.089   7.206   4.672  1.00 20.00     0.037 C 
BRANCH   8  10
HETATM   10  O10 UNL     1     -35.597   4.865   4.282  1.00 20.00    -0.396 OA
HETATM   11  H24 UNL     1     -35.711   4.014   4.734  1.00 20.00     0.210 HD
ENDBRANCH   8  10
ENDBRANCH   4   5
ENDBRANCH   2   4
TORSDOF 3
