REMARK  2 active torsions:
REMARK  status: ('A' for Active; 'I' for Inactive)
REMARK    1  A    between atoms: C9_9  and  C11_11 
REMARK    2  A    between atoms: C10_10  and  C11_11 
ROOT
HETATM    1  C1  UNL     1     -32.723   8.433  -0.474  1.00 20.00     0.012 C 
HETATM    2  C2  UNL     1     -32.676   8.016   0.651  1.00 20.00    -0.117 C 
HETATM    3  C10 UNL     1     -32.616   7.510   2.029  1.00 20.00     0.093 C 
ENDROOT
BRANCH   3   4
HETATM    4  C11 UNL     1     -33.427   6.236   2.147  1.00 20.00     0.017 C 
BRANCH   4   5
HETATM    5  C9  UNL     1     -33.390   5.706   3.586  1.00 20.00    -0.007 C 
HETATM    6  C5  UNL     1     -34.178   4.393   3.665  1.00 20.00     0.082 C 
HETATM    7  C3  UNL     1     -33.706   3.462   4.760  1.00 20.00     0.127 C 
HETATM    8  C4  UNL     1     -33.382   4.013   6.130  1.00 20.00     0.078 C 
HETATM    9  O12 UNL     1     -33.580   2.254   4.536  1.00 20.00    -0.298 OA
HETATM   10  C6  UNL     1     -34.236   5.201   6.551  1.00 20.00     0.007 C 
HETATM   11  C7  UNL     1     -33.711   6.530   6.014  1.00 20.00     0.001 C 
HETATM   12  C8  UNL     1     -33.967   6.774   4.529  1.00 20.00     0.005 C 
ENDBRANCH   4   5
ENDBRANCH   3   4
TORSDOF 2
