REMARK  1 active torsions:
REMARK  status: ('A' for Active; 'I' for Inactive)
REMARK    1  A    between atoms: C7_7  and  C8_8 
ROOT
HETATM    1  C1  UNL     1     -33.805   4.965   2.556  1.00 20.00     0.002 C 
HETATM    2  C2  UNL     1     -32.475   5.598   2.148  1.00 20.00     0.005 C 
HETATM    3  C5  UNL     1     -34.093   5.165   4.042  1.00 20.00     0.016 C 
HETATM    4  C6  UNL     1     -32.689   7.270   4.034  1.00 20.00     0.020 C 
HETATM    5  C8  UNL     1     -32.364   7.078   2.544  1.00 20.00    -0.009 C 
HETATM    6  C9  UNL     1     -34.023   6.639   4.426  1.00 20.00     0.058 C 
HETATM    7 BR10 UNL     1     -34.270   6.810   6.359  1.00 20.00    -0.091 Br
ENDROOT
BRANCH   5   8
HETATM    8  C7  UNL     1     -33.238   7.968   1.656  1.00 20.00    -0.010 A 
HETATM    9  C3  UNL     1     -32.897   9.421   1.470  1.00 20.00     0.005 A 
HETATM   10  C4  UNL     1     -32.720   8.456   0.331  1.00 20.00     0.005 A 
ENDBRANCH   5   8
TORSDOF 1
