REMARK  3 active torsions:
REMARK  status: ('A' for Active; 'I' for Inactive)
REMARK    1  A    between atoms: C1_1  and  C4_4 
REMARK    2  A    between atoms: C1_1  and  C5_5 
REMARK    3  A    between atoms: C5_5  and  C6_6 
ROOT
HETATM    1  C1  UNL     1     -33.396   6.248   3.081  1.00 20.00     0.139 C 
HETATM    2  O7  UNL     1     -33.753   5.112   2.796  1.00 20.00    -0.297 OA
ENDROOT
BRANCH   1   3
HETATM    3  C4  UNL     1     -32.431   6.969   2.202  1.00 20.00     0.056 A 
HETATM    4  C2  UNL     1     -32.762   7.124   0.755  1.00 20.00     0.013 A 
HETATM    5  C3  UNL     1     -32.816   8.309   1.670  1.00 20.00     0.013 A 
ENDBRANCH   1   3
BRANCH   1   6
HETATM    6  C5  UNL     1     -33.864   7.019   4.296  1.00 20.00     0.196 C 
BRANCH   6   7
HETATM    7  C6  UNL     1     -34.231   6.119   5.453  1.00 20.00     0.394 C 
HETATM    8  F8  UNL     1     -34.656   6.830   6.518  1.00 20.00    -0.171 F 
HETATM    9  F9  UNL     1     -33.183   5.362   5.842  1.00 20.00    -0.171 F 
HETATM   10  F10 UNL     1     -35.230   5.280   5.097  1.00 20.00    -0.171 F 
ENDBRANCH   6   7
ENDBRANCH   1   6
TORSDOF 3
