REMARK  3 active torsions:
REMARK  status: ('A' for Active; 'I' for Inactive)
REMARK    1  A    between atoms: C4_4  and  C5_5 
REMARK    2  A    between atoms: C5_5  and  C6_6 
REMARK    3  A    between atoms: C6_6  and  C7_7 
ROOT
HETATM    1  C1  UNL     1     -33.515   6.669   5.524  1.00 20.00     0.033 C 
HETATM    2  C2  UNL     1     -34.913   6.169   5.821  1.00 20.00     0.168 C 
HETATM    3  C3  UNL     1     -34.457   5.773   3.571  1.00 20.00     0.172 C 
HETATM    4  C4  UNL     1     -33.595   6.933   4.036  1.00 20.00     0.011 C 
HETATM    5  O8  UNL     1     -35.371   5.491   4.642  1.00 20.00    -0.391 OA
ENDROOT
BRANCH   4   6
HETATM    6  C5  UNL     1     -32.247   7.009   3.345  1.00 20.00     0.008 C 
BRANCH   6   7
HETATM    7  C6  UNL     1     -32.394   7.316   1.853  1.00 20.00     0.015 C 
BRANCH   7   8
HETATM    8  C7  UNL     1     -33.129   8.631   1.631  1.00 20.00     0.114 C 
HETATM    9 CL9  UNL     1     -33.274   8.975  -0.108  1.00 20.00    -0.130 Cl
ENDBRANCH   7   8
ENDBRANCH   6   7
ENDBRANCH   4   6
TORSDOF 3
