REMARK  1 active torsions:
REMARK  status: ('A' for Active; 'I' for Inactive)
REMARK    1  A    between atoms: C8_8  and  C10_10 
ROOT
HETATM    1  C1  UNL     1     -33.554   9.169   0.641  1.00 20.00     0.012 C 
HETATM    2  C2  UNL     1     -32.722   8.576   1.272  1.00 20.00    -0.117 C 
HETATM    3  C10 UNL     1     -31.694   7.864   2.032  1.00 20.00     0.097 C 
ENDROOT
BRANCH   3   4
HETATM    4  C8  UNL     1     -32.330   6.826   2.965  1.00 20.00    -0.002 C 
HETATM    5  C5  UNL     1     -33.053   5.769   2.119  1.00 20.00     0.005 C 
HETATM    6  C3  UNL     1     -33.767   4.671   2.905  1.00 20.00     0.000 C 
HETATM    7  C4  UNL     1     -35.061   5.158   3.546  1.00 20.00     0.001 C 
HETATM    8  C6  UNL     1     -34.909   5.817   4.914  1.00 20.00     0.020 C 
HETATM    9  C9  UNL     1     -33.634   6.626   5.157  1.00 20.00     0.082 C 
HETATM   10  C7  UNL     1     -33.220   7.540   4.000  1.00 20.00     0.025 C 
HETATM   11 CL11 UNL     1     -33.883   7.615   6.641  1.00 20.00    -0.125 Cl
ENDBRANCH   3   4
TORSDOF 1
