REMARK  1 active torsions:
REMARK  status: ('A' for Active; 'I' for Inactive)
REMARK    1  A    between atoms: C8_8  and  C9_9 
ROOT
HETATM    1  C1  UNL     1     -33.556   8.970   0.994  1.00 20.00     0.012 C 
HETATM    2  C2  UNL     1     -32.830   8.172   1.521  1.00 20.00    -0.117 C 
HETATM    3  C9  UNL     1     -31.935   7.201   2.157  1.00 20.00     0.098 C 
ENDROOT
BRANCH   3   4
HETATM    4  C8  UNL     1     -32.676   6.381   3.211  1.00 20.00     0.004 C 
HETATM    5  C5  UNL     1     -33.209   7.290   4.321  1.00 20.00     0.083 C 
HETATM    6  C3  UNL     1     -34.035   6.497   5.310  1.00 20.00     0.127 C 
HETATM    7  C4  UNL     1     -35.117   5.615   4.731  1.00 20.00     0.078 C 
HETATM    8  O10 UNL     1     -33.903   6.642   6.524  1.00 20.00    -0.298 OA
HETATM    9  C6  UNL     1     -34.556   4.744   3.616  1.00 20.00     0.008 C 
HETATM   10  C7  UNL     1     -33.813   5.572   2.568  1.00 20.00     0.006 C 
ENDBRANCH   3   4
TORSDOF 1
