REMARK  2 active torsions:
REMARK  status: ('A' for Active; 'I' for Inactive)
REMARK    1  A    between atoms: C5_5  and  C8_8 
REMARK    2  A    between atoms: C8_8  and  C9_9 
ROOT
HETATM    1  C1  UNL     1     -34.092   4.361   2.510  1.00 20.00     0.002 C 
HETATM    2  C2  UNL     1     -32.940   5.311   2.194  1.00 20.00     0.005 C 
HETATM    3  C3  UNL     1     -34.393   4.318   4.006  1.00 20.00     0.020 C 
HETATM    4  C4  UNL     1     -33.498   6.671   4.252  1.00 20.00     0.024 C 
HETATM    5  C5  UNL     1     -33.197   6.720   2.746  1.00 20.00    -0.013 C 
HETATM    6  C6  UNL     1     -34.657   5.720   4.555  1.00 20.00     0.082 C 
HETATM    7 CL10 UNL     1     -34.929   5.638   6.319  1.00 20.00    -0.125 Cl
ENDROOT
BRANCH   5   8
HETATM    8  C8  UNL     1     -32.008   7.636   2.463  1.00 20.00     0.004 C 
BRANCH   8   9
HETATM    9  C9  UNL     1     -31.726   7.728   0.967  1.00 20.00    -0.004 C 
HETATM   10  C7  UNL     1     -32.933   8.257   0.210  1.00 20.00     0.005 C 
ENDBRANCH   8   9
ENDBRANCH   5   8
TORSDOF 2
