REMARK  4 active torsions:
REMARK  status: ('A' for Active; 'I' for Inactive)
REMARK    1  A    between atoms: C5_5  and  C8_8 
REMARK    2  A    between atoms: C6_6  and  C9_9 
REMARK    3  A    between atoms: C9_9  and  C10_10 
REMARK    4  A    between atoms: C10_10  and  C11_11 
ROOT
HETATM    1  C1  UNL     1     -33.902   5.143   2.106  1.00 20.00     0.001 C 
HETATM    2  C2  UNL     1     -34.484   4.873   3.490  1.00 20.00     0.005 C 
HETATM    3  C3  UNL     1     -32.527   5.802   2.191  1.00 20.00     0.005 C 
HETATM    4  C4  UNL     1     -33.144   6.799   4.431  1.00 20.00     0.009 C 
HETATM    5  C5  UNL     1     -34.530   6.142   4.350  1.00 20.00    -0.014 C 
HETATM    6  C6  UNL     1     -32.521   7.071   3.053  1.00 20.00    -0.014 C 
ENDROOT
BRANCH   6   7
HETATM    7  C9  UNL     1     -33.205   8.242   2.343  1.00 20.00     0.005 C 
BRANCH   7   8
HETATM    8  C10 UNL     1     -32.282   8.870   1.304  1.00 20.00     0.015 C 
BRANCH   8   9
HETATM    9  C11 UNL     1     -32.984  10.012   0.580  1.00 20.00     0.114 C 
HETATM   10 CL12 UNL     1     -33.481  11.267   1.737  1.00 20.00    -0.130 Cl
ENDBRANCH   8   9
ENDBRANCH   7   8
ENDBRANCH   6   7
BRANCH   5  11
HETATM   11  C8  UNL     1     -35.056   5.824   5.749  1.00 20.00     0.000 C 
HETATM   12  C7  UNL     1     -34.167   4.863   6.466  1.00 20.00     0.005 C 
ENDBRANCH   5  11
TORSDOF 4
