REMARK  5 active torsions:
REMARK  status: ('A' for Active; 'I' for Inactive)
REMARK    1  A    between atoms: C2_2  and  C8_8 
REMARK    2  A    between atoms: C3_3  and  C9_9 
REMARK    3  A    between atoms: C3_3  and  C11_11 
REMARK    4  A    between atoms: C8_8  and  C10_10 
REMARK    5  A    between atoms: C9_9  and  C10_10 
ROOT
HETATM    1  C1  UNL     1     -32.746   8.081   0.486  1.00 20.00    -0.111 C 
HETATM    2  C2  UNL     1     -32.308   7.375   1.353  1.00 20.00    -0.107 C 
HETATM    3  C4  UNL     1     -33.277   8.935  -0.575  1.00 20.00     0.112 C 
ENDROOT
BRANCH   2   4
HETATM    4  C8  UNL     1     -31.767   6.509   2.410  1.00 20.00     0.094 C 
BRANCH   4   5
HETATM    5  C10 UNL     1     -32.529   5.185   2.526  1.00 20.00     0.020 C 
BRANCH   5   6
HETATM    6  C9  UNL     1     -34.003   5.342   2.909  1.00 20.00     0.080 C 
BRANCH   6   7
HETATM    7  C3  UNL     1     -34.210   6.073   4.232  1.00 20.00     0.134 C 
HETATM    8  O12 UNL     1     -34.285   7.303   4.266  1.00 20.00    -0.297 OA
BRANCH   7   9
HETATM    9  C11 UNL     1     -34.338   5.226   5.516  1.00 20.00     0.009 C 
HETATM   10  C5  UNL     1     -33.072   4.388   5.736  1.00 20.00     0.022 C 
HETATM   11  C6  UNL     1     -35.538   4.271   5.383  1.00 20.00     0.022 C 
HETATM   12  C7  UNL     1     -34.578   6.159   6.709  1.00 20.00     0.022 C 
ENDBRANCH   7   9
ENDBRANCH   6   7
ENDBRANCH   5   6
ENDBRANCH   4   5
ENDBRANCH   2   4
TORSDOF 5
