REMARK  2 active torsions:
REMARK  status: ('A' for Active; 'I' for Inactive)
REMARK    1  A    between atoms: C6_6  and  C7_7 
REMARK    2  A    between atoms: C8_8  and  O9_9 
ROOT
HETATM    1  C1  UNL     1     -35.234   5.096   3.703  1.00 20.00     0.003 C 
HETATM    2  C2  UNL     1     -34.362   5.620   2.562  1.00 20.00     0.007 C 
HETATM    3  C5  UNL     1     -34.783   5.836   4.963  1.00 20.00     0.032 C 
HETATM    4  C7  UNL     1     -33.171   6.277   3.253  1.00 20.00     0.018 C 
HETATM    5  C8  UNL     1     -33.819   6.913   4.480  1.00 20.00     0.122 C 
ENDROOT
BRANCH   4   6
HETATM    6  C6  UNL     1     -32.443   7.278   2.369  1.00 20.00    -0.008 A 
HETATM    7  C3  UNL     1     -32.682   7.292   0.884  1.00 20.00     0.005 A 
HETATM    8  C4  UNL     1     -33.194   8.418   1.739  1.00 20.00     0.005 A 
ENDBRANCH   4   6
BRANCH   5   9
HETATM    9  O9  UNL     1     -32.852   7.225   5.465  1.00 20.00    -0.395 OA
HETATM   10  H23 UNL     1     -33.334   7.544   6.246  1.00 20.00     0.210 HD
ENDBRANCH   5   9
TORSDOF 2
