REMARK  2 active torsions:
REMARK  status: ('A' for Active; 'I' for Inactive)
REMARK    1  A    between atoms: C7_7  and  C10_10 
REMARK    2  A    between atoms: C9_9  and  C10_10 
ROOT
HETATM    1  C2  UNL     1     -34.907   6.692   3.431  1.00 20.00     0.006 C 
HETATM    2  C3  UNL     1     -35.829   5.632   4.019  1.00 20.00     0.020 C 
HETATM    3  C5  UNL     1     -33.799   4.499   3.438  1.00 20.00     0.025 C 
HETATM    4  C7  UNL     1     -33.762   5.896   2.790  1.00 20.00    -0.011 C 
HETATM    5  C8  UNL     1     -34.873   4.558   4.522  1.00 20.00     0.082 C 
HETATM    6 CL12 UNL     1     -34.156   5.030   6.090  1.00 20.00    -0.125 Cl
ENDROOT
BRANCH   4   7
HETATM    7  C10 UNL     1     -32.416   6.589   2.953  1.00 20.00     0.036 C 
BRANCH   7   8
HETATM    8  C9  UNL     1     -32.214   7.679   1.919  1.00 20.00     0.121 C 
HETATM    9  C4  UNL     1     -32.897   8.988   2.276  1.00 20.00     0.034 C 
HETATM   10  C1  UNL     1     -33.103   9.601   0.914  1.00 20.00     0.029 C 
HETATM   11  C6  UNL     1     -33.449   8.389   0.074  1.00 20.00     0.168 C 
HETATM   12  O11 UNL     1     -32.771   7.267   0.659  1.00 20.00    -0.386 OA
ENDBRANCH   7   8
ENDBRANCH   4   7
TORSDOF 2
