REMARK  2 active torsions:
REMARK  status: ('A' for Active; 'I' for Inactive)
REMARK    1  A    between atoms: C2_2  and  C9_9 
REMARK    2  A    between atoms: C7_7  and  C9_9 
ROOT
HETATM    1  C3  UNL     1     -34.505   4.136   3.776  1.00 20.00     0.002 C 
HETATM    2  C4  UNL     1     -33.382   4.779   2.957  1.00 20.00     0.005 C 
HETATM    3  C5  UNL     1     -35.030   5.027   4.906  1.00 20.00     0.020 C 
HETATM    4  C6  UNL     1     -33.487   6.938   4.286  1.00 20.00     0.025 C 
HETATM    5  C7  UNL     1     -33.533   6.300   2.884  1.00 20.00    -0.010 C 
HETATM    6  C8  UNL     1     -33.957   5.991   5.398  1.00 20.00     0.082 C 
HETATM    7 CL10 UNL     1     -34.554   6.930   6.795  1.00 20.00    -0.125 Cl
ENDROOT
BRANCH   5   8
HETATM    8  C9  UNL     1     -32.478   6.919   1.969  1.00 20.00     0.031 C 
BRANCH   8   9
HETATM    9  C2  UNL     1     -32.663   8.399   1.856  1.00 20.00    -0.037 C 
HETATM   10  C1  UNL     1     -33.400   8.988   0.907  1.00 20.00     0.007 C 
ENDBRANCH   8   9
ENDBRANCH   5   8
TORSDOF 2
