REMARK  1 active torsions:
REMARK  status: ('A' for Active; 'I' for Inactive)
REMARK    1  A    between atoms: C4_4  and  C8_8 
ROOT
HETATM    1  C1  UNL     1     -33.733   4.926   3.203  1.00 20.00     0.006 C 
HETATM    2  C2  UNL     1     -33.216   5.531   1.894  1.00 20.00     0.020 C 
HETATM    3  C3  UNL     1     -33.527   7.336   3.422  1.00 20.00     0.025 C 
HETATM    4  C4  UNL     1     -34.158   6.111   4.085  1.00 20.00    -0.010 C 
HETATM    5  C5  UNL     1     -33.637   6.993   1.944  1.00 20.00     0.082 C 
HETATM    6 CL9  UNL     1     -32.615   8.026   0.935  1.00 20.00    -0.125 Cl
ENDROOT
BRANCH   4   7
HETATM    7  C8  UNL     1     -33.754   5.950   5.541  1.00 20.00    -0.019 C 
HETATM    8  C6  UNL     1     -34.173   7.173   6.357  1.00 20.00     0.010 C 
HETATM    9  C7  UNL     1     -34.363   4.680   6.135  1.00 20.00     0.010 C 
ENDBRANCH   4   7
TORSDOF 1
