REMARK  2 active torsions:
REMARK  status: ('A' for Active; 'I' for Inactive)
REMARK    1  A    between atoms: C2_2  and  C9_9 
REMARK    2  A    between atoms: C7_7  and  C9_9 
ROOT
HETATM    1  C1  UNL     1     -32.684   8.480   0.945  1.00 20.00    -0.111 C 
HETATM    2  C2  UNL     1     -32.675   7.375   1.415  1.00 20.00    -0.107 C 
HETATM    3  C8  UNL     1     -32.695   9.825   0.373  1.00 20.00     0.112 C 
ENDROOT
BRANCH   2   4
HETATM    4  C9  UNL     1     -32.662   6.023   1.986  1.00 20.00     0.099 C 
BRANCH   4   5
HETATM    5  C7  UNL     1     -33.772   5.845   3.008  1.00 20.00     0.004 C 
HETATM    6  C5  UNL     1     -33.644   6.798   4.198  1.00 20.00     0.083 C 
HETATM    7  C3  UNL     1     -34.369   6.039   5.279  1.00 20.00     0.127 C 
HETATM    8  C4  UNL     1     -34.647   4.611   4.886  1.00 20.00     0.079 C 
HETATM    9  O10 UNL     1     -34.698   6.528   6.353  1.00 20.00    -0.298 OA
HETATM   10  C6  UNL     1     -33.775   4.455   3.647  1.00 20.00     0.013 C 
ENDBRANCH   4   5
ENDBRANCH   2   4
TORSDOF 2
