REMARK  3 active torsions:
REMARK  status: ('A' for Active; 'I' for Inactive)
REMARK    1  A    between atoms: C1_1  and  C3_3 
REMARK    2  A    between atoms: C2_2  and  C7_7 
REMARK    3  A    between atoms: C7_7  and  C8_8 
ROOT
HETATM    1  C1  UNL     1     -33.217   7.986   1.987  1.00 20.00     0.005 C 
HETATM    2  C2  UNL     1     -33.296   7.014   2.688  1.00 20.00    -0.090 C 
ENDROOT
BRANCH   2   3
HETATM    3  C7  UNL     1     -33.390   5.820   3.553  1.00 20.00     0.065 C 
HETATM    4  C4  UNL     1     -33.641   4.578   2.695  1.00 20.00     0.024 C 
BRANCH   3   5
HETATM    5  C8  UNL     1     -34.452   5.973   4.673  1.00 20.00    -0.007 C 
HETATM    6  C5  UNL     1     -35.895   5.766   4.201  1.00 20.00     0.011 C 
HETATM    7  C6  UNL     1     -34.156   5.049   5.861  1.00 20.00     0.011 C 
ENDBRANCH   3   5
ENDBRANCH   2   3
BRANCH   1   8
HETATM    8  C3  UNL     1     -33.117   9.229   1.084  1.00 20.00     0.258 C 
HETATM    9  O9  UNL     1     -32.997   9.004  -0.155  1.00 20.00    -0.637 OA
HETATM   10  O10 UNL     1     -33.166  10.347   1.674  1.00 20.00    -0.637 OA
ENDBRANCH   1   8
TORSDOF 3
