REMARK  0 active torsions:
REMARK  status: ('A' for Active; 'I' for Inactive)
ROOT
HETATM    1  C1  UNL     1     -33.048   6.746   2.212  1.00 20.00     0.088 C 
HETATM    2  C2  UNL     1     -33.973   5.801   4.225  1.00 20.00    -0.044 C 
HETATM    3  C3  UNL     1     -33.773   5.742   2.905  1.00 20.00     0.098 C 
HETATM    4  C4  UNL     1     -34.717   4.803   5.041  1.00 20.00     0.063 C 
HETATM    5  C5  UNL     1     -33.415   6.837   5.141  1.00 20.00     0.202 C 
HETATM    6  C6  UNL     1     -34.062   5.008   6.391  1.00 20.00     0.172 C 
HETATM    7  N7  UNL     1     -32.455   7.564   1.642  1.00 20.00    -0.192 NA
HETATM    8  O8  UNL     1     -33.777   6.412   6.468  1.00 20.00    -0.387 OA
ENDROOT
TORSDOF 0
