REMARK  1 active torsions:
REMARK  status: ('A' for Active; 'I' for Inactive)
REMARK    1  A    between atoms: C4_4  and  S6_6 
ROOT
HETATM    1  C1  UNL     1     -33.662   6.599   5.540  1.00 20.00     0.043 C 
HETATM    2  C2  UNL     1     -34.377   5.433   6.190  1.00 20.00     0.168 C 
HETATM    3  C3  UNL     1     -34.238   5.016   3.899  1.00 20.00     0.182 C 
HETATM    4  C4  UNL     1     -34.181   6.516   4.122  1.00 20.00     0.070 C 
HETATM    5  O5  UNL     1     -34.529   4.427   5.179  1.00 20.00    -0.390 OA
ENDROOT
BRANCH   4   6
HETATM    6  S6  UNL     1     -33.131   7.376   2.927  1.00 20.00    -0.175 SA
HETATM    7  H14 UNL     1     -33.884   7.087   1.859  1.00 20.00     0.102 HD
ENDBRANCH   4   6
TORSDOF 1
