REMARK  1 active torsions:
REMARK  status: ('A' for Active; 'I' for Inactive)
REMARK    1  A    between atoms: C3_3  and  N9_9 
ROOT
HETATM    1  C4  UNL     1     -31.487   8.490   2.083  1.00 20.00     0.041 C 
HETATM    2  C5  UNL     1     -32.262   8.156   3.358  1.00 20.00     0.126 C 
HETATM    3  C6  UNL     1     -32.937   6.656   1.579  1.00 20.00     0.145 C 
HETATM    4  C7  UNL     1     -32.358   7.932   0.964  1.00 20.00     0.102 C 
HETATM    5  N9  UNL     1     -33.009   6.949   3.010  1.00 20.00    -0.358 N 
HETATM    6 CL11 UNL     1     -33.665   9.080   0.552  1.00 20.00    -0.123 Cl
ENDROOT
BRANCH   5   7
HETATM    7  C3  UNL     1     -33.678   6.167   3.928  1.00 20.00     0.168 A 
HETATM    8  N8  UNL     1     -34.352   5.080   3.623  1.00 20.00    -0.236 NA
HETATM    9  C1  UNL     1     -34.894   4.552   4.778  1.00 20.00     0.126 A 
HETATM   10  C2  UNL     1     -34.625   5.244   5.941  1.00 20.00     0.072 A 
HETATM   11  S10 UNL     1     -33.654   6.611   5.585  1.00 20.00    -0.063 SA
ENDBRANCH   5   7
TORSDOF 1
