REMARK  3 active torsions:
REMARK  status: ('A' for Active; 'I' for Inactive)
REMARK    1  A    between atoms: C4_4  and  C6_6 
REMARK    2  A    between atoms: C7_7  and  C8_8 
REMARK    3  A    between atoms: C8_8  and  N9_9 
ROOT
HETATM    1  C1  UNL     1     -34.251   3.648   3.975  1.00 20.00     0.032 C 
HETATM    2  C2  UNL     1     -35.158   4.828   4.308  1.00 20.00     0.038 C 
HETATM    3  C3  UNL     1     -33.169   4.212   3.061  1.00 20.00     0.273 C 
HETATM    4  C4  UNL     1     -34.364   6.065   3.893  1.00 20.00     0.236 C 
HETATM    5  N9  UNL     1     -33.643   5.552   2.722  1.00 20.00     0.094 N 
ENDROOT
BRANCH   5   6
HETATM    6  C8  UNL     1     -32.594   6.412   2.204  1.00 20.00     0.272 C 
BRANCH   6   7
HETATM    7  C7  UNL     1     -33.100   7.812   1.875  1.00 20.00     0.026 C 
HETATM    8  C5  UNL     1     -32.011   8.713   1.310  1.00 20.00     0.007 C 
ENDBRANCH   6   7
ENDBRANCH   5   6
BRANCH   4   9
HETATM    9  C6  UNL     1     -33.495   6.586   5.042  1.00 20.00     0.150 C 
HETATM   10 CL10 UNL     1     -34.512   7.034   6.424  1.00 20.00    -0.128 Cl
ENDBRANCH   4   9
TORSDOF 3
