REMARK  2 active torsions:
REMARK  status: ('A' for Active; 'I' for Inactive)
REMARK    1  A    between atoms: C3_3  and  C6_6 
REMARK    2  A    between atoms: C5_5  and  C6_6 
ROOT
HETATM    1  C6  UNL     1     -33.804   6.127   3.816  1.00 20.00     0.086 C 
HETATM    2 CL7  UNL     1     -33.692   4.491   3.098  1.00 20.00    -0.125 Cl
ENDROOT
BRANCH   1   3
HETATM    3  C3  UNL     1     -33.727   5.993   5.309  1.00 20.00     0.004 A 
HETATM    4  C1  UNL     1     -34.315   7.056   6.196  1.00 20.00     0.006 A 
HETATM    5  C2  UNL     1     -34.968   5.705   6.108  1.00 20.00     0.006 A 
ENDBRANCH   1   3
BRANCH   1   6
HETATM    6  C5  UNL     1     -32.699   7.042   3.276  1.00 20.00     0.016 C 
HETATM    7  C4  UNL     1     -32.720   7.191   1.761  1.00 20.00     0.006 C 
ENDBRANCH   1   6
TORSDOF 2
