REMARK  3 active torsions:
REMARK  status: ('A' for Active; 'I' for Inactive)
REMARK    1  A    between atoms: C7_7  and  C9_9 
REMARK    2  A    between atoms: C8_8  and  C9_9 
REMARK    3  A    between atoms: C8_8  and  N10_10 
ROOT
HETATM    1  C1  UNL     1     -31.483   8.370   1.633  1.00 20.00     0.052 C 
HETATM    2  C2  UNL     1     -31.873   7.805   2.998  1.00 20.00     0.274 C 
HETATM    3  C3  UNL     1     -33.781   7.655   1.668  1.00 20.00     0.292 C 
HETATM    4  C4  UNL     1     -32.653   8.020   0.717  1.00 20.00     0.112 C 
HETATM    5  N10 UNL     1     -33.042   6.964   2.726  1.00 20.00     0.090 N 
HETATM    6 CL11 UNL     1     -33.094   9.352  -0.364  1.00 20.00    -0.123 Cl
ENDROOT
BRANCH   5   7
HETATM    7  C8  UNL     1     -33.851   6.733   3.913  1.00 20.00     0.276 C 
BRANCH   7   8
HETATM    8  C9  UNL     1     -34.825   5.554   3.771  1.00 20.00     0.009 C 
HETATM    9  C6  UNL     1     -34.068   4.245   3.523  1.00 20.00     0.011 C 
BRANCH   8  10
HETATM   10  C7  UNL     1     -35.781   5.385   4.968  1.00 20.00     0.001 C 
HETATM   11  C5  UNL     1     -35.067   5.111   6.284  1.00 20.00     0.005 C 
ENDBRANCH   8  10
ENDBRANCH   7   8
ENDBRANCH   5   7
TORSDOF 3
