REMARK  2 active torsions:
REMARK  status: ('A' for Active; 'I' for Inactive)
REMARK    1  A    between atoms: C6_6  and  C8_8 
REMARK    2  A    between atoms: C8_8  and  N9_9 
ROOT
HETATM    1  C3  UNL     1     -33.448   6.928   4.816  1.00 20.00     0.052 C 
HETATM    2  C4  UNL     1     -32.399   7.179   3.735  1.00 20.00     0.274 C 
HETATM    3  C5  UNL     1     -33.582   5.301   3.042  1.00 20.00     0.292 C 
HETATM    4  C7  UNL     1     -34.333   5.819   4.260  1.00 20.00     0.112 C 
HETATM    5  N9  UNL     1     -32.847   6.468   2.528  1.00 20.00     0.090 N 
HETATM    6 CL10 UNL     1     -34.644   4.537   5.444  1.00 20.00    -0.123 Cl
ENDROOT
BRANCH   5   7
HETATM    7  C8  UNL     1     -33.694   7.319   1.691  1.00 20.00     0.277 C 
BRANCH   7   8
HETATM    8  C6  UNL     1     -32.874   8.274   0.892  1.00 20.00     0.014 A 
HETATM    9  C1  UNL     1     -33.538   9.241  -0.048  1.00 20.00     0.007 A 
HETATM   10  C2  UNL     1     -32.894   9.742   1.214  1.00 20.00     0.007 A 
ENDBRANCH   7   8
ENDBRANCH   5   7
TORSDOF 2
