REMARK  3 active torsions:
REMARK  status: ('A' for Active; 'I' for Inactive)
REMARK    1  A    between atoms: C1_1  and  C4_4 
REMARK       I    between atoms: C1_1  and  N7_7 
REMARK    2  A    between atoms: C5_5  and  C6_6 
REMARK    3  A    between atoms: C5_5  and  N7_7 
ROOT
HETATM    1  C1  UNL     1     -33.850   5.668   3.544  1.00 20.00     0.219 C 
HETATM    2  C3  UNL     1     -32.833   7.693   4.608  1.00 20.00     0.152 C 
HETATM    3  N7  UNL     1     -33.009   6.784   3.482  1.00 20.00    -0.355 N 
HETATM    4  O8  UNL     1     -33.652   4.632   2.902  1.00 20.00    -0.273 OA
ENDROOT
BRANCH   3   5
HETATM    5  C5  UNL     1     -32.245   7.123   2.284  1.00 20.00     0.140 C 
BRANCH   5   6
HETATM    6  C6  UNL     1     -33.010   8.039   1.343  1.00 20.00     0.134 C 
HETATM    7 CL9  UNL     1     -32.050   8.426  -0.107  1.00 20.00    -0.129 Cl
ENDBRANCH   5   6
ENDBRANCH   3   5
BRANCH   1   8
HETATM    8  C4  UNL     1     -35.057   5.786   4.463  1.00 20.00     0.098 C 
HETATM    9  C2  UNL     1     -34.768   5.306   5.876  1.00 20.00     0.014 C 
ENDBRANCH   1   8
TORSDOF 3
