REMARK  3 active torsions:
REMARK  status: ('A' for Active; 'I' for Inactive)
REMARK    1  A    between atoms: C1_1  and  C7_7 
REMARK       I    between atoms: C1_1  and  N8_8 
REMARK    2  A    between atoms: C5_5  and  C6_6 
REMARK    3  A    between atoms: C5_5  and  N8_8 
ROOT
HETATM    1  C1  UNL     1     -33.559   6.454   4.301  1.00 20.00     0.222 C 
HETATM    2  C4  UNL     1     -33.049   5.141   2.278  1.00 20.00     0.152 C 
HETATM    3  N8  UNL     1     -33.121   6.422   2.973  1.00 20.00    -0.355 N 
HETATM    4  O9  UNL     1     -33.172   7.303   5.112  1.00 20.00    -0.273 OA
ENDROOT
BRANCH   1   5
HETATM    5  C7  UNL     1     -34.581   5.400   4.741  1.00 20.00     0.070 C 
HETATM    6  C2  UNL     1     -35.857   5.532   3.910  1.00 20.00     0.019 C 
HETATM    7  C3  UNL     1     -34.916   5.554   6.227  1.00 20.00     0.019 C 
ENDBRANCH   1   5
BRANCH   3   8
HETATM    8  C5  UNL     1     -32.746   7.578   2.161  1.00 20.00     0.140 C 
BRANCH   8   9
HETATM    9  C6  UNL     1     -33.605   7.719   0.915  1.00 20.00     0.134 C 
HETATM   10 CL10 UNL     1     -33.116   9.133  -0.052  1.00 20.00    -0.129 Cl
ENDBRANCH   8   9
ENDBRANCH   3   8
TORSDOF 3
