REMARK  1 active torsions:
REMARK  status: ('A' for Active; 'I' for Inactive)
REMARK    1  A    between atoms: C1_1  and  C8_8 
REMARK       I    between atoms: C1_1  and  N10_10 
ROOT
HETATM    1  C1  UNL     1     -33.805   7.025   1.531  1.00 20.00     0.224 C 
HETATM    2  C2  UNL     1     -32.747   8.050   4.819  1.00 20.00     0.021 C 
HETATM    3  C5  UNL     1     -33.425   7.037   5.740  1.00 20.00     0.023 C 
HETATM    4  C6  UNL     1     -32.345   7.415   3.491  1.00 20.00     0.126 C 
HETATM    5  C7  UNL     1     -34.159   5.739   3.698  1.00 20.00     0.145 C 
HETATM    6  C9  UNL     1     -34.595   6.356   5.027  1.00 20.00     0.100 C 
HETATM    7  N10 UNL     1     -33.479   6.738   2.861  1.00 20.00    -0.350 N 
HETATM    8  O11 UNL     1     -34.734   6.513   0.912  1.00 20.00    -0.273 OA
HETATM    9 CL12 UNL     1     -35.295   5.095   6.080  1.00 20.00    -0.123 Cl
ENDROOT
BRANCH   1  10
HETATM   10  C8  UNL     1     -32.956   8.026   0.817  1.00 20.00     0.078 A 
HETATM   11  C3  UNL     1     -33.550   8.774  -0.328  1.00 20.00     0.015 A 
HETATM   12  C4  UNL     1     -33.284   9.473   0.971  1.00 20.00     0.015 A 
ENDBRANCH   1  10
TORSDOF 1
