REMARK  2 active torsions:
REMARK  status: ('A' for Active; 'I' for Inactive)
REMARK    1  A    between atoms: C6_6  and  C7_7 
REMARK    2  A    between atoms: C6_6  and  N8_8 
ROOT
HETATM    1  C1  UNL     1     -34.614   4.936   3.355  1.00 20.00     0.050 C 
HETATM    2  C2  UNL     1     -34.066   6.524   5.218  1.00 20.00     0.050 C 
HETATM    3  C3  UNL     1     -33.484   5.570   2.537  1.00 20.00     0.274 C 
HETATM    4  C4  UNL     1     -32.954   7.106   4.340  1.00 20.00     0.274 C 
HETATM    5  C5  UNL     1     -34.399   5.075   4.862  1.00 20.00     0.085 C 
HETATM    6  N8  UNL     1     -33.282   6.976   2.914  1.00 20.00     0.093 N 
HETATM    7 CL11 UNL     1     -33.090   3.981   5.410  1.00 20.00    -0.125 Cl
ENDROOT
BRANCH   6   8
HETATM    8  C6  UNL     1     -32.237   7.582   2.090  1.00 20.00     0.343 C 
BRANCH   8   9
HETATM    9  C7  UNL     1     -32.793   7.992   0.742  1.00 20.00     0.381 C 
HETATM   10  F9  UNL     1     -31.778   8.185  -0.137  1.00 20.00    -0.213 F 
HETATM   11  F10 UNL     1     -33.427   9.186   0.866  1.00 20.00    -0.213 F 
ENDBRANCH   8   9
ENDBRANCH   6   8
TORSDOF 2
