REMARK  4 active torsions:
REMARK  status: ('A' for Active; 'I' for Inactive)
REMARK    1  A    between atoms: C4_4  and  C7_7 
REMARK    2  A    between atoms: C8_8  and  C10_10 
REMARK    3  A    between atoms: C9_9  and  C10_10 
REMARK    4  A    between atoms: C9_9  and  N11_11 
ROOT
HETATM    1  C1  UNL     1     -31.492   7.677   2.935  1.00 20.00     0.035 C 
HETATM    2  C2  UNL     1     -32.537   6.934   3.742  1.00 20.00     0.235 C 
HETATM    3  C3  UNL     1     -32.964   6.670   1.343  1.00 20.00     0.240 C 
HETATM    4  C4  UNL     1     -32.184   7.954   1.607  1.00 20.00     0.027 C 
HETATM    5  N11 UNL     1     -33.242   6.078   2.714  1.00 20.00    -0.070 N 
HETATM    6  H33 UNL     1     -32.789   5.151   2.738  1.00 20.00     0.279 HD
ENDROOT
BRANCH   5   7
HETATM    7  C9  UNL     1     -34.692   5.858   3.006  1.00 20.00     0.239 C 
BRANCH   7   8
HETATM    8  C10 UNL     1     -34.910   4.733   4.027  1.00 20.00     0.007 C 
HETATM    9  C6  UNL     1     -34.652   5.217   5.459  1.00 20.00     0.011 C 
BRANCH   8  10
HETATM   10  C8  UNL     1     -34.091   3.455   3.758  1.00 20.00     0.001 C 
HETATM   11  C5  UNL     1     -34.355   2.338   4.758  1.00 20.00     0.005 C 
ENDBRANCH   8  10
ENDBRANCH   7   8
ENDBRANCH   5   7
BRANCH   4  12
HETATM   12  C7  UNL     1     -33.099   9.177   1.669  1.00 20.00     0.121 C 
HETATM   13 CL12 UNL     1     -33.868   9.456   0.094  1.00 20.00    -0.130 Cl
ENDBRANCH   4  12
TORSDOF 4
