REMARK  1 active torsions:
REMARK  status: ('A' for Active; 'I' for Inactive)
REMARK    1  A    between atoms: C8_8  and  N9_9 
ROOT
HETATM    1  C1  UNL     1     -33.932   6.518   1.081  1.00 20.00     0.050 C 
HETATM    2  C2  UNL     1     -32.304   8.022   2.270  1.00 20.00     0.050 C 
HETATM    3  C3  UNL     1     -33.666   5.456   2.153  1.00 20.00     0.274 C 
HETATM    4  C4  UNL     1     -32.095   6.907   3.300  1.00 20.00     0.274 C 
HETATM    5  C5  UNL     1     -32.727   7.442   0.922  1.00 20.00     0.085 C 
HETATM    6  N9  UNL     1     -33.244   6.003   3.449  1.00 20.00     0.092 N 
HETATM    7 CL10 UNL     1     -33.103   8.755  -0.225  1.00 20.00    -0.125 Cl
ENDROOT
BRANCH   6   8
HETATM    8  C8  UNL     1     -34.349   6.628   4.173  1.00 20.00     0.215 C 
HETATM    9  C6  UNL     1     -33.829   7.188   5.489  1.00 20.00     0.042 C 
HETATM   10  C7  UNL     1     -35.441   5.591   4.394  1.00 20.00     0.042 C 
ENDBRANCH   6   8
TORSDOF 1
