REMARK  1 active torsions:
REMARK  status: ('A' for Active; 'I' for Inactive)
REMARK    1  A    between atoms: C6_6  and  N7_7 
ROOT
HETATM    1  C1  UNL     1     -32.645   7.850   1.516  1.00 20.00     0.158 C 
HETATM    2  N7  UNL     1     -32.404   7.388   2.566  1.00 20.00    -0.268 NA
HETATM    3  S9  UNL     1     -32.938   8.491   0.088  1.00 20.00    -0.055 SA
ENDROOT
BRANCH   2   4
HETATM    4  C6  UNL     1     -33.520   6.676   3.190  1.00 20.00     0.133 C 
HETATM    5  C3  UNL     1     -33.488   5.213   2.755  1.00 20.00     0.032 C 
HETATM    6  C2  UNL     1     -34.509   4.402   3.545  1.00 20.00     0.028 C 
HETATM    7  C4  UNL     1     -34.346   4.640   5.040  1.00 20.00     0.167 C 
HETATM    8  O8  UNL     1     -34.436   6.032   5.345  1.00 20.00    -0.389 OA
HETATM    9  C5  UNL     1     -33.408   6.790   4.706  1.00 20.00     0.195 C 
ENDBRANCH   2   4
TORSDOF 1
