REMARK  2 active torsions:
REMARK  status: ('A' for Active; 'I' for Inactive)
REMARK    1  A    between atoms: C3_3  and  C6_6 
REMARK    2  A    between atoms: C5_5  and  C6_6 
ROOT
HETATM    1  C6  UNL     1     -33.041   6.041   3.526  1.00 20.00     0.086 C 
HETATM    2 CL7  UNL     1     -33.748   4.763   2.493  1.00 20.00    -0.125 Cl
ENDROOT
BRANCH   1   3
HETATM    3  C3  UNL     1     -34.162   6.770   4.209  1.00 20.00     0.004 A 
HETATM    4  C1  UNL     1     -34.878   6.140   5.372  1.00 20.00     0.006 A 
HETATM    5  C2  UNL     1     -33.973   7.319   5.597  1.00 20.00     0.006 A 
ENDBRANCH   1   3
BRANCH   1   6
HETATM    6  C5  UNL     1     -32.169   6.996   2.702  1.00 20.00     0.016 C 
HETATM    7  C4  UNL     1     -32.940   7.742   1.622  1.00 20.00     0.006 C 
ENDBRANCH   1   6
TORSDOF 2
