REMARK  3 active torsions:
REMARK  status: ('A' for Active; 'I' for Inactive)
REMARK    1  A    between atoms: C6_6  and  C7_7 
REMARK    2  A    between atoms: C7_7  and  C8_8 
REMARK    3  A    between atoms: C8_8  and  N9_9 
ROOT
HETATM    1  C1  UNL     1     -33.172   7.073   5.058  1.00 20.00     0.052 C 
HETATM    2  C2  UNL     1     -31.925   7.404   4.241  1.00 20.00     0.274 C 
HETATM    3  C3  UNL     1     -33.104   5.840   2.988  1.00 20.00     0.292 C 
HETATM    4  C4  UNL     1     -34.024   6.199   4.145  1.00 20.00     0.112 C 
HETATM    5  N9  UNL     1     -32.197   6.992   2.856  1.00 20.00     0.089 N 
HETATM    6 CL10 UNL     1     -34.647   4.759   4.970  1.00 20.00    -0.123 Cl
ENDROOT
BRANCH   5   7
HETATM    7  C8  UNL     1     -32.805   8.077   2.086  1.00 20.00     0.272 C 
BRANCH   7   8
HETATM    8  C7  UNL     1     -32.592   7.916   0.584  1.00 20.00     0.030 C 
BRANCH   8   9
HETATM    9  C6  UNL     1     -33.203   9.064  -0.223  1.00 20.00    -0.003 C 
HETATM   10  C5  UNL     1     -32.923   8.907  -1.709  1.00 20.00     0.005 C 
ENDBRANCH   8   9
ENDBRANCH   7   8
ENDBRANCH   5   7
TORSDOF 3
