REMARK  5 active torsions:
REMARK  status: ('A' for Active; 'I' for Inactive)
REMARK    1  A    between atoms: C2_2  and  C8_8 
REMARK    2  A    between atoms: C5_5  and  C9_9 
REMARK    3  A    between atoms: C7_7  and  C8_8 
REMARK    4  A    between atoms: C7_7  and  C9_9 
REMARK    5  A    between atoms: C9_9  and  O10_10 
ROOT
HETATM    1  C9  UNL     1     -32.785   6.918   1.919  1.00 20.00     0.122 C 
ENDROOT
BRANCH   1   2
HETATM    2  C5  UNL     1     -33.701   8.025   1.418  1.00 20.00     0.014 A 
HETATM    3  C3  UNL     1     -33.141   9.383   1.097  1.00 20.00     0.007 A 
HETATM    4  C4  UNL     1     -33.619   8.486  -0.011  1.00 20.00     0.007 A 
ENDBRANCH   1   2
BRANCH   1   5
HETATM    5  C7  UNL     1     -32.542   6.969   3.435  1.00 20.00     0.040 C 
BRANCH   5   6
HETATM    6  C8  UNL     1     -33.788   6.758   4.315  1.00 20.00     0.005 C 
HETATM    7  C6  UNL     1     -33.520   7.280   5.730  1.00 20.00     0.014 C 
BRANCH   6   8
HETATM    8  C2  UNL     1     -34.184   5.304   4.385  1.00 20.00    -0.033 C 
HETATM    9  C1  UNL     1     -35.375   4.833   3.999  1.00 20.00     0.007 C 
ENDBRANCH   6   8
ENDBRANCH   5   6
ENDBRANCH   1   5
BRANCH   1  10
HETATM   10  O10 UNL     1     -33.412   5.673   1.604  1.00 20.00    -0.395 OA
HETATM   11  H26 UNL     1     -32.818   4.979   1.928  1.00 20.00     0.210 HD
ENDBRANCH   1  10
TORSDOF 5
