REMARK  3 active torsions:
REMARK  status: ('A' for Active; 'I' for Inactive)
REMARK    1  A    between atoms: C4_4  and  C7_7 
REMARK    2  A    between atoms: C8_8  and  C9_9 
REMARK    3  A    between atoms: C8_8  and  N10_10 
ROOT
HETATM    1  C1  UNL     1     -34.116   7.122   5.610  1.00 20.00     0.032 C 
HETATM    2  C2  UNL     1     -35.090   6.052   5.134  1.00 20.00     0.038 C 
HETATM    3  C3  UNL     1     -32.930   7.038   4.663  1.00 20.00     0.273 C 
HETATM    4  C4  UNL     1     -34.440   5.417   3.904  1.00 20.00     0.236 C 
HETATM    5  N10 UNL     1     -33.423   6.382   3.444  1.00 20.00     0.094 N 
ENDROOT
BRANCH   5   6
HETATM    6  C8  UNL     1     -34.001   7.360   2.519  1.00 20.00     0.277 C 
BRANCH   6   7
HETATM    7  C9  UNL     1     -32.923   8.055   1.679  1.00 20.00     0.006 C 
HETATM    8  C5  UNL     1     -32.119   7.067   0.832  1.00 20.00     0.011 C 
HETATM    9  C6  UNL     1     -33.504   9.167   0.804  1.00 20.00     0.011 C 
ENDBRANCH   6   7
ENDBRANCH   5   6
BRANCH   4  10
HETATM   10  C7  UNL     1     -33.775   4.080   4.242  1.00 20.00     0.150 C 
HETATM   11 CL11 UNL     1     -33.044   3.374   2.788  1.00 20.00    -0.128 Cl
ENDBRANCH   4  10
TORSDOF 3
