REMARK  3 active torsions:
REMARK  status: ('A' for Active; 'I' for Inactive)
REMARK    1  A    between atoms: C7_7  and  C8_8 
REMARK    2  A    between atoms: C7_7  and  C9_9 
REMARK    3  A    between atoms: C8_8  and  N10_10 
ROOT
HETATM    1  C1  UNL     1     -34.547   4.689   3.909  1.00 20.00     0.052 C 
HETATM    2  C2  UNL     1     -33.716   5.131   2.717  1.00 20.00     0.274 C 
HETATM    3  C3  UNL     1     -33.957   7.044   4.044  1.00 20.00     0.292 C 
HETATM    4  C4  UNL     1     -34.961   6.008   4.555  1.00 20.00     0.112 C 
HETATM    5  N10 UNL     1     -32.980   6.262   3.279  1.00 20.00     0.089 N 
HETATM    6 CL11 UNL     1     -34.971   5.889   6.327  1.00 20.00    -0.123 Cl
ENDROOT
BRANCH   5   7
HETATM    7  C8  UNL     1     -32.303   7.051   2.261  1.00 20.00     0.272 C 
BRANCH   7   8
HETATM    8  C7  UNL     1     -33.273   7.649   1.244  1.00 20.00     0.034 C 
BRANCH   8   9
HETATM    9  C9  UNL     1     -32.614   8.474   0.121  1.00 20.00    -0.021 C 
HETATM   10  C5  UNL     1     -31.842   9.649   0.729  1.00 20.00     0.009 C 
HETATM   11  C6  UNL     1     -33.631   8.995  -0.895  1.00 20.00     0.009 C 
ENDBRANCH   8   9
ENDBRANCH   7   8
ENDBRANCH   5   7
TORSDOF 3
