REMARK  5 active torsions:
REMARK  status: ('A' for Active; 'I' for Inactive)
REMARK    1  A    between atoms: C5_5  and  C9_9 
REMARK    2  A    between atoms: C6_6  and  C7_7 
REMARK    3  A    between atoms: C6_6  and  C8_8 
REMARK    4  A    between atoms: C7_7  and  C9_9 
REMARK    5  A    between atoms: C8_8  and  C10_10 
ROOT
HETATM    1  C6  UNL     1     -32.638   6.447   2.197  1.00 20.00     0.002 C 
ENDROOT
BRANCH   1   2
HETATM    2  C7  UNL     1     -33.486   5.462   3.016  1.00 20.00     0.020 C 
BRANCH   2   3
HETATM    3  C9  UNL     1     -34.261   6.137   4.159  1.00 20.00     0.082 C 
HETATM    4 CL11 UNL     1     -33.138   7.021   5.241  1.00 20.00    -0.125 Cl
BRANCH   3   5
HETATM    5  C5  UNL     1     -35.119   5.152   4.967  1.00 20.00     0.016 C 
HETATM    6  C1  UNL     1     -34.357   4.013   5.635  1.00 20.00     0.006 C 
ENDBRANCH   3   5
ENDBRANCH   2   3
ENDBRANCH   1   2
BRANCH   1   7
HETATM    7  C8  UNL     1     -33.518   7.538   1.573  1.00 20.00     0.008 C 
BRANCH   7   8
HETATM    8  C10 UNL     1     -32.783   8.561   0.665  1.00 20.00    -0.051 C 
HETATM    9  C2  UNL     1     -31.736   9.359   1.461  1.00 20.00     0.014 C 
HETATM   10  C3  UNL     1     -32.058   7.779  -0.448  1.00 20.00     0.014 C 
HETATM   11  C4  UNL     1     -33.773   9.537   0.010  1.00 20.00     0.014 C 
ENDBRANCH   7   8
ENDBRANCH   1   7
TORSDOF 5
