REMARK  1 active torsions:
REMARK  status: ('A' for Active; 'I' for Inactive)
REMARK    1  A    between atoms: C4_4  and  C9_9 
ROOT
HETATM    1  C1  UNL     1     -32.484   7.802   2.552  1.00 20.00    -0.003 A 
HETATM    2  C2  UNL     1     -33.041   7.307   3.783  1.00 20.00     0.004 A 
HETATM    3  C3  UNL     1     -32.504   6.832   1.627  1.00 20.00    -0.022 A 
HETATM    4  C4  UNL     1     -33.409   6.026   3.625  1.00 20.00    -0.069 A 
HETATM    5  C5  UNL     1     -33.102   5.588   2.218  1.00 20.00     0.062 A 
ENDROOT
BRANCH   4   6
HETATM    6  C9  UNL     1     -34.037   5.105   4.636  1.00 20.00    -0.028 C 
HETATM    7  C6  UNL     1     -33.120   3.892   4.846  1.00 20.00     0.019 C 
HETATM    8  C7  UNL     1     -35.406   4.634   4.124  1.00 20.00     0.019 C 
HETATM    9  C8  UNL     1     -34.221   5.849   5.966  1.00 20.00     0.019 C 
ENDBRANCH   4   6
TORSDOF 1
