REMARK  0 active torsions:
REMARK  status: ('A' for Active; 'I' for Inactive)
ROOT
HETATM    1  C1  UNL     1     -34.330   4.609   3.630  1.00 20.00     0.009 A 
HETATM    2  C2  UNL     1     -33.739   5.278   2.555  1.00 20.00     0.019 A 
HETATM    3  C3  UNL     1     -33.263   7.216   3.956  1.00 20.00     0.026 A 
HETATM    4  C4  UNL     1     -34.369   5.269   4.836  1.00 20.00    -0.051 A 
HETATM    5  C5  UNL     1     -33.852   6.532   4.994  1.00 20.00    -0.050 A 
HETATM    6  C6  UNL     1     -33.209   6.573   2.717  1.00 20.00     0.011 A 
HETATM    7  C7  UNL     1     -34.807   5.166   6.267  1.00 20.00     0.043 A 
HETATM    8  C8  UNL     1     -34.219   6.605   6.446  1.00 20.00     0.043 A 
HETATM    9 BR9  UNL     1     -32.414   7.448   1.240  1.00 20.00    -0.051 Br
ENDROOT
TORSDOF 0
