REMARK  2 active torsions:
REMARK  status: ('A' for Active; 'I' for Inactive)
REMARK    1  A    between atoms: C3_3  and  C10_10 
REMARK    2  A    between atoms: C4_4  and  C10_10 
ROOT
HETATM    1  C5  UNL     1     -34.674   5.961   6.156  1.00 20.00     0.000 C 
HETATM    2  C6  UNL     1     -35.084   5.015   5.034  1.00 20.00     0.001 C 
HETATM    3  C7  UNL     1     -33.236   6.437   5.989  1.00 20.00     0.001 C 
HETATM    4  C8  UNL     1     -34.875   5.648   3.658  1.00 20.00     0.017 C 
HETATM    5  C9  UNL     1     -33.008   7.079   4.620  1.00 20.00     0.017 C 
HETATM    6  C10 UNL     1     -33.444   6.177   3.452  1.00 20.00    -0.006 C 
ENDROOT
BRANCH   6   7
HETATM    7  C3  UNL     1     -32.487   5.020   3.310  1.00 20.00    -0.023 C 
HETATM    8  C1  UNL     1     -32.579   4.085   2.358  1.00 20.00     0.008 C 
ENDBRANCH   6   7
BRANCH   6   9
HETATM    9  C4  UNL     1     -33.415   7.015   2.199  1.00 20.00    -0.023 C 
HETATM   10  C2  UNL     1     -32.321   7.624   1.732  1.00 20.00     0.008 C 
ENDBRANCH   6   9
TORSDOF 2
