REMARK  0 active torsions:
REMARK  status: ('A' for Active; 'I' for Inactive)
ROOT
HETATM    1  C1  UNL     1     -33.332   7.268   2.280  1.00 20.00     0.119 C 
HETATM    2  C2  UNL     1     -33.875   4.890   2.750  1.00 20.00     0.063 A 
HETATM    3  C3  UNL     1     -34.548   5.170   4.829  1.00 20.00     0.137 A 
HETATM    4  C4  UNL     1     -33.794   6.212   3.126  1.00 20.00     0.137 A 
HETATM    5  C5  UNL     1     -34.365   4.214   3.856  1.00 20.00     0.031 A 
HETATM    6  N6  UNL     1     -32.957   8.125   1.594  1.00 20.00    -0.190 NA
HETATM    7  N7  UNL     1     -34.202   6.385   4.388  1.00 20.00    -0.249 NA
HETATM    8 BR8  UNL     1     -34.706   2.374   3.995  1.00 20.00    -0.050 Br
ENDROOT
TORSDOF 0
