REMARK  0 active torsions:
REMARK  status: ('A' for Active; 'I' for Inactive)
ROOT
HETATM    1  C1  UNL     1     -33.516   6.609   5.414  1.00 20.00     0.036 A 
HETATM    2  C2  UNL     1     -32.924   6.937   4.262  1.00 20.00     0.007 A 
HETATM    3  C3  UNL     1     -34.643   5.688   5.213  1.00 20.00     0.086 A 
HETATM    4  C4  UNL     1     -33.459   6.350   3.000  1.00 20.00     0.172 A 
HETATM    5  N5  UNL     1     -35.404   5.203   6.127  1.00 20.00    -0.293 NA
HETATM    6  S6  UNL     1     -34.848   5.299   3.519  1.00 20.00    -0.086 SA
HETATM    7 CL7  UNL     1     -34.003   7.629   1.901  1.00 20.00    -0.109 Cl
HETATM    8  H11 UNL     1     -36.104   4.586   5.699  1.00 20.00     0.187 HD
ENDROOT
TORSDOF 0
