REMARK  1 active torsions:
REMARK  status: ('A' for Active; 'I' for Inactive)
REMARK    1  A    between atoms: C6_6  and  C7_7 
ROOT
HETATM    1  C3  UNL     1     -34.221   3.878   3.593  1.00 20.00     0.296 C 
HETATM    2  C4  UNL     1     -34.384   4.376   5.024  1.00 20.00     0.197 C 
HETATM    3  C5  UNL     1     -33.805   6.559   4.373  1.00 20.00     0.203 C 
HETATM    4  C7  UNL     1     -33.623   6.113   2.919  1.00 20.00     0.248 C 
HETATM    5  N8  UNL     1     -33.238   4.695   2.878  1.00 20.00     0.092 N 
HETATM    6  O9  UNL     1     -34.781   5.747   5.027  1.00 20.00    -0.387 OA
HETATM    7  H22 UNL     1     -32.331   4.584   3.333  1.00 20.00     0.316 HD
ENDROOT
BRANCH   4   8
HETATM    8  C6  UNL     1     -32.571   6.935   2.229  1.00 20.00     0.021 A 
HETATM    9  C1  UNL     1     -32.520   6.995   0.727  1.00 20.00     0.007 A 
HETATM   10  C2  UNL     1     -32.950   8.202   1.513  1.00 20.00     0.007 A 
ENDBRANCH   4   8
TORSDOF 1
