REMARK  0 active torsions:
REMARK  status: ('A' for Active; 'I' for Inactive)
ROOT
HETATM    1  C1  UNL     1     -33.667   5.162   1.784  1.00 20.00     0.017 A 
HETATM    2  C2  UNL     1     -33.416   6.338   1.077  1.00 20.00     0.025 A 
HETATM    3  C3  UNL     1     -34.125   6.462   5.224  1.00 20.00     0.031 A 
HETATM    4  C4  UNL     1     -33.633   7.615   3.117  1.00 20.00     0.036 A 
HETATM    5  C5  UNL     1     -34.368   5.260   5.871  1.00 20.00     0.119 A 
HETATM    6  C6  UNL     1     -33.903   5.204   3.168  1.00 20.00     0.010 A 
HETATM    7  C7  UNL     1     -33.887   6.441   3.845  1.00 20.00    -0.020 A 
HETATM    8  C8  UNL     1     -33.399   7.562   1.742  1.00 20.00     0.034 A 
HETATM    9  C9  UNL     1     -34.159   4.059   3.924  1.00 20.00     0.113 A 
HETATM   10  N10 UNL     1     -34.391   4.058   5.256  1.00 20.00    -0.253 NA
HETATM   11 CL11 UNL     1     -33.089   9.011   0.866  1.00 20.00    -0.084 Cl
HETATM   12 BR12 UNL     1     -34.215   2.306   3.153  1.00 20.00    -0.028 Br
ENDROOT
TORSDOF 0
