REMARK  1 active torsions:
REMARK  status: ('A' for Active; 'I' for Inactive)
REMARK    1  A    between atoms: C1_1  and  C4_4 
ROOT
HETATM    1  C2  UNL     1     -35.401   5.036   3.934  1.00 20.00     0.013 C 
HETATM    2  C3  UNL     1     -35.611   5.091   5.459  1.00 20.00     0.010 C 
HETATM    3  C4  UNL     1     -34.367   6.181   4.080  1.00 20.00     0.062 C 
HETATM    4  C5  UNL     1     -34.203   5.744   5.580  1.00 20.00    -0.037 C 
HETATM    5  C7  UNL     1     -34.150   6.916   6.557  1.00 20.00     0.015 C 
HETATM    6  C8  UNL     1     -33.091   4.733   5.871  1.00 20.00     0.015 C 
ENDROOT
BRANCH   3   7
HETATM    7  C1  UNL     1     -33.135   6.159   3.171  1.00 20.00     0.128 C 
HETATM    8  C6  UNL     1     -32.734   4.823   2.607  1.00 20.00     0.091 C 
HETATM    9  O9  UNL     1     -32.506   7.184   2.913  1.00 20.00    -0.298 OA
ENDBRANCH   3   7
TORSDOF 1
