REMARK  0 active torsions:
REMARK  status: ('A' for Active; 'I' for Inactive)
ROOT
HETATM    1  C1  UNL     1     -34.693   4.840   6.255  1.00 20.00     0.009 C 
HETATM    2  C2  UNL     1     -34.378   7.159   5.350  1.00 20.00     0.012 C 
HETATM    3  C3  UNL     1     -35.866   5.529   4.147  1.00 20.00     0.012 C 
HETATM    4  C4  UNL     1     -32.494   5.507   5.250  1.00 20.00     0.012 C 
HETATM    5  C5  UNL     1     -33.978   3.881   4.050  1.00 20.00     0.012 C 
HETATM    6  C6  UNL     1     -35.386   6.008   5.530  1.00 20.00    -0.013 C 
HETATM    7  C7  UNL     1     -33.489   4.348   5.433  1.00 20.00    -0.013 C 
HETATM    8  C8  UNL     1     -33.175   6.679   4.521  1.00 20.00     0.021 C 
HETATM    9  C9  UNL     1     -34.668   5.043   3.313  1.00 20.00     0.021 C 
HETATM   10  C10 UNL     1     -33.677   6.205   3.149  1.00 20.00     0.178 C 
HETATM   11  F11 UNL     1     -32.618   5.790   2.402  1.00 20.00    -0.249 F 
ENDROOT
TORSDOF 0
