REMARK  0 active torsions:
REMARK  status: ('A' for Active; 'I' for Inactive)
ROOT
HETATM    1  C1  UNL     1     -34.191   5.157   2.807  1.00 20.00     0.105 C 
HETATM    2  C2  UNL     1     -33.922   6.668   4.291  1.00 20.00     0.260 C 
HETATM    3  C3  UNL     1     -33.009   6.073   3.191  1.00 20.00     0.128 C 
HETATM    4  C4  UNL     1     -34.703   5.327   4.255  1.00 20.00     0.276 C 
HETATM    5  F5  UNL     1     -33.318   6.966   5.463  1.00 20.00    -0.241 F 
HETATM    6  F6  UNL     1     -34.281   4.389   5.134  1.00 20.00    -0.203 F 
HETATM    7  F7  UNL     1     -36.043   5.425   4.398  1.00 20.00    -0.203 F 
HETATM    8 CL8  UNL     1     -32.337   7.164   1.950  1.00 20.00    -0.122 Cl
ENDROOT
TORSDOF 0
