REMARK  1 active torsions:
REMARK  status: ('A' for Active; 'I' for Inactive)
REMARK    1  A    between atoms: C2_2  and  C6_6 
ROOT
HETATM    1  C1  UNL     1     -33.354   6.562   2.803  1.00 20.00     0.071 C 
HETATM    2  C2  UNL     1     -33.727   6.328   4.074  1.00 20.00     0.003 C 
HETATM    3 BR7  UNL     1     -32.223   7.894   2.165  1.00 20.00    -0.062 Br
HETATM    4 BR8  UNL     1     -33.092   7.420   5.488  1.00 20.00    -0.054 Br
ENDROOT
BRANCH   2   5
HETATM    5  C6  UNL     1     -34.679   5.187   4.505  1.00 20.00    -0.017 C 
HETATM    6  C3  UNL     1     -34.933   5.156   6.034  1.00 20.00     0.020 C 
HETATM    7  C4  UNL     1     -36.061   5.345   3.834  1.00 20.00     0.020 C 
HETATM    8  C5  UNL     1     -34.085   3.811   4.131  1.00 20.00     0.020 C 
ENDBRANCH   2   5
TORSDOF 1
