REMARK  1 active torsions:
REMARK  status: ('A' for Active; 'I' for Inactive)
REMARK    1  A    between atoms: C7_7  and  C8_8 
ROOT
HETATM    1  C1  UNL     1     -34.242   5.194   5.900  1.00 20.00    -0.026 C 
HETATM    2  C2  UNL     1     -33.803   6.447   5.709  1.00 20.00    -0.025 C 
HETATM    3  C3  UNL     1     -35.448   6.071   4.134  1.00 20.00     0.017 C 
HETATM    4  C4  UNL     1     -33.729   4.533   3.569  1.00 20.00     0.014 C 
HETATM    5  C5  UNL     1     -34.861   4.736   4.601  1.00 20.00     0.009 C 
HETATM    6  C6  UNL     1     -34.116   6.818   4.276  1.00 20.00     0.013 C 
HETATM    7  C7  UNL     1     -33.173   5.979   3.374  1.00 20.00     0.007 C 
ENDROOT
BRANCH   7   8
HETATM    8  C8  UNL     1     -33.200   6.418   1.914  1.00 20.00     0.119 C 
HETATM    9 CL9  UNL     1     -32.567   8.067   1.758  1.00 20.00    -0.130 Cl
ENDBRANCH   7   8
TORSDOF 1
