REMARK  0 active torsions:
REMARK  status: ('A' for Active; 'I' for Inactive)
ROOT
HETATM    1  C1  UNL     1     -33.949   4.846   3.960  1.00 20.00     0.006 C 
HETATM    2  C2  UNL     1     -33.486   4.968   2.505  1.00 20.00     0.011 C 
HETATM    3  C3  UNL     1     -33.160   7.251   4.716  1.00 20.00     0.010 C 
HETATM    4  C4  UNL     1     -32.047   7.442   3.694  1.00 20.00     0.069 C 
HETATM    5  C5  UNL     1     -32.715   9.369   1.078  1.00 20.00     0.197 C 
HETATM    6  C6  UNL     1     -32.302   8.171   0.269  1.00 20.00     0.197 C 
HETATM    7  C7  UNL     1     -34.193   6.367   4.015  1.00 20.00    -0.005 C 
HETATM    8  C8  UNL     1     -33.898   6.459   2.499  1.00 20.00     0.052 C 
HETATM    9  C9  UNL     1     -32.797   7.509   2.367  1.00 20.00     0.168 C 
HETATM   10  O10 UNL     1     -33.398   8.801   2.195  1.00 20.00    -0.353 OA
HETATM   11  O11 UNL     1     -31.937   7.216   1.264  1.00 20.00    -0.353 OA
ENDROOT
TORSDOF 0
