REMARK  2 active torsions:
REMARK  status: ('A' for Active; 'I' for Inactive)
REMARK    1  A    between atoms: C2_2  and  C3_3 
REMARK    2  A    between atoms: C2_2  and  C4_4 
ROOT
HETATM    1  C2  UNL     1     -33.214   6.027   4.068  1.00 20.00     0.244 C 
HETATM    2 CL9  UNL     1     -33.358   7.735   4.622  1.00 20.00    -0.111 Cl
ENDROOT
BRANCH   1   3
HETATM    3  C3  UNL     1     -33.277   5.951   2.527  1.00 20.00     0.200 C 
HETATM    4  C1  UNL     1     -33.070   4.545   1.969  1.00 20.00     0.072 C 
HETATM    5  F5  UNL     1     -34.503   6.385   2.115  1.00 20.00    -0.224 F 
HETATM    6 CL10 UNL     1     -32.042   7.014   1.776  1.00 20.00    -0.081 Cl
ENDBRANCH   1   3
BRANCH   1   7
HETATM    7  C4  UNL     1     -34.299   5.233   4.788  1.00 20.00     0.408 C 
HETATM    8  F6  UNL     1     -34.234   5.397   6.127  1.00 20.00    -0.169 F 
HETATM    9  F7  UNL     1     -35.532   5.622   4.387  1.00 20.00    -0.169 F 
HETATM   10  F8  UNL     1     -34.211   3.910   4.532  1.00 20.00    -0.169 F 
ENDBRANCH   1   7
TORSDOF 2
