REMARK  0 active torsions:
REMARK  status: ('A' for Active; 'I' for Inactive)
ROOT
HETATM    1  C1  UNL     1     -34.019   4.766   3.573  1.00 20.00     0.131 C 
HETATM    2  C2  UNL     1     -33.709   4.876   2.091  1.00 20.00     0.079 C 
HETATM    3  C3  UNL     1     -32.516   5.800   1.832  1.00 20.00     0.016 C 
HETATM    4  C4  UNL     1     -33.013   8.049   5.024  1.00 20.00     0.006 C 
HETATM    5  C5  UNL     1     -33.624   7.403   6.276  1.00 20.00     0.005 C 
HETATM    6  C6  UNL     1     -34.135   6.086   4.305  1.00 20.00     0.064 C 
HETATM    7  C7  UNL     1     -32.852   6.883   4.054  1.00 20.00     0.005 C 
HETATM    8  C8  UNL     1     -34.191   6.037   5.833  1.00 20.00    -0.007 C 
HETATM    9  C9  UNL     1     -32.600   7.175   2.556  1.00 20.00    -0.043 C 
HETATM   10  C10 UNL     1     -35.593   5.789   6.372  1.00 20.00     0.011 C 
HETATM   11  C11 UNL     1     -31.252   7.904   2.389  1.00 20.00     0.015 C 
HETATM   12  C12 UNL     1     -33.690   8.048   1.907  1.00 20.00     0.015 C 
HETATM   13  O13 UNL     1     -34.253   3.684   4.106  1.00 20.00    -0.298 OA
ENDROOT
TORSDOF 0
