REMARK  1 active torsions:
REMARK  status: ('A' for Active; 'I' for Inactive)
REMARK    1  A    between atoms: C7_7  and  O9_9 
ROOT
HETATM    1  C1  UNL     1     -33.811   4.406   3.345  1.00 20.00    -0.019 A 
HETATM    2  C2  UNL     1     -33.424   5.693   3.237  1.00 20.00    -0.080 A 
HETATM    3  C3  UNL     1     -34.574   4.286   5.831  1.00 20.00     0.012 C 
HETATM    4  C4  UNL     1     -33.531   5.285   6.317  1.00 20.00     0.033 C 
HETATM    5  C5  UNL     1     -34.871   4.699   4.387  1.00 20.00     0.019 A 
HETATM    6  C6  UNL     1     -34.445   6.182   4.257  1.00 20.00     0.050 A 
HETATM    7  C7  UNL     1     -33.957   6.589   5.650  1.00 20.00     0.127 C 
HETATM    8  C8  UNL     1     -32.356   6.412   2.391  1.00 20.00     0.043 C 
ENDROOT
BRANCH   7   9
HETATM    9  O9  UNL     1     -32.884   7.508   5.557  1.00 20.00    -0.395 OA
HETATM   10  H21 UNL     1     -32.585   7.689   6.464  1.00 20.00     0.210 HD
ENDBRANCH   7   9
TORSDOF 1
