REMARK  1 active torsions:
REMARK  status: ('A' for Active; 'I' for Inactive)
REMARK    1  A    between atoms: C4_4  and  C6_6 
ROOT
HETATM    1  C1  UNL     1     -34.797   5.682   6.304  1.00 20.00     0.279 C 
HETATM    2  C2  UNL     1     -34.870   5.005   3.974  1.00 20.00     0.284 C 
HETATM    3  C3  UNL     1     -34.093   7.011   6.058  1.00 20.00     0.104 C 
HETATM    4  C4  UNL     1     -34.171   6.251   3.419  1.00 20.00     0.075 C 
HETATM    5  N7  UNL     1     -35.647   5.277   5.185  1.00 20.00     0.085 N 
HETATM    6  S8  UNL     1     -32.978   6.918   4.630  1.00 20.00    -0.161 SA
HETATM    7  H21 UNL     1     -36.151   4.429   5.447  1.00 20.00     0.315 HD
ENDROOT
BRANCH   4   8
HETATM    8  C6  UNL     1     -33.429   5.929   2.124  1.00 20.00     0.012 C 
HETATM    9  C5  UNL     1     -32.724   7.128   1.578  1.00 20.00     0.006 C 
ENDBRANCH   4   8
TORSDOF 1
