REMARK  0 active torsions:
REMARK  status: ('A' for Active; 'I' for Inactive)
ROOT
HETATM    1  C1  UNL     1     -33.389   5.711   1.534  1.00 20.00    -0.019 A 
HETATM    2  C2  UNL     1     -32.818   6.913   1.683  1.00 20.00    -0.086 A 
HETATM    3  C3  UNL     1     -34.070   5.944   4.537  1.00 20.00     0.132 C 
HETATM    4  C4  UNL     1     -32.278   7.155   3.066  1.00 20.00     0.046 A 
HETATM    5  C5  UNL     1     -34.638   4.854   3.611  1.00 20.00     0.088 C 
HETATM    6  C6  UNL     1     -33.324   4.943   2.797  1.00 20.00     0.027 A 
HETATM    7  C7  UNL     1     -32.689   5.907   3.846  1.00 20.00     0.067 A 
HETATM    8  C8  UNL     1     -32.689   7.959   0.633  1.00 20.00     0.043 C 
HETATM    9  O9  UNL     1     -34.536   6.592   5.450  1.00 20.00    -0.298 OA
ENDROOT
TORSDOF 0
