REMARK  0 active torsions:
REMARK  status: ('A' for Active; 'I' for Inactive)
ROOT
HETATM    1  C1  UNL     1     -34.306   3.873   4.038  1.00 20.00     0.004 C 
HETATM    2  C2  UNL     1     -34.905   4.454   5.317  1.00 20.00     0.005 C 
HETATM    3  C3  UNL     1     -33.016   4.597   3.647  1.00 20.00     0.042 C 
HETATM    4  C4  UNL     1     -33.778   6.719   5.842  1.00 20.00     0.013 A 
HETATM    5  C5  UNL     1     -34.964   5.953   5.309  1.00 20.00    -0.007 A 
HETATM    6  C6  UNL     1     -34.104   6.773   4.373  1.00 20.00     0.029 A 
HETATM    7  C7  UNL     1     -33.265   6.080   3.336  1.00 20.00     0.117 C 
HETATM    8 CL8  UNL     1     -31.701   6.941   3.195  1.00 20.00    -0.101 Cl
HETATM    9 CL9  UNL     1     -34.118   6.231   1.756  1.00 20.00    -0.101 Cl
ENDROOT
TORSDOF 0
