REMARK  0 active torsions:
REMARK  status: ('A' for Active; 'I' for Inactive)
ROOT
HETATM    1  C1  UNL     1     -34.428   6.312   6.250  1.00 20.00    -0.021 C 
HETATM    2  C2  UNL     1     -34.359   4.028   4.977  1.00 20.00    -0.021 C 
HETATM    3  C3  UNL     1     -33.513   7.151   5.716  1.00 20.00    -0.025 C 
HETATM    4  C4  UNL     1     -33.945   3.903   3.697  1.00 20.00    -0.025 C 
HETATM    5  C5  UNL     1     -32.768   7.162   3.020  1.00 20.00     0.009 C 
HETATM    6  C6  UNL     1     -33.080   5.896   2.150  1.00 20.00     0.009 C 
HETATM    7  C7  UNL     1     -35.017   5.357   5.232  1.00 20.00     0.035 C 
HETATM    8  C8  UNL     1     -33.177   6.638   4.370  1.00 20.00     0.013 C 
HETATM    9  C9  UNL     1     -34.236   5.133   2.862  1.00 20.00     0.013 C 
HETATM   10  C10 UNL     1     -34.564   6.082   3.988  1.00 20.00     0.012 C 
ENDROOT
TORSDOF 0
