REMARK  0 active torsions:
REMARK  status: ('A' for Active; 'I' for Inactive)
ROOT
HETATM    1  C1  UNL     1     -33.860   5.299   3.488  1.00 20.00     0.196 C 
HETATM    2  C2  UNL     1     -34.873   4.984   4.567  1.00 20.00     0.092 C 
HETATM    3  C3  UNL     1     -34.380   5.322   5.974  1.00 20.00     0.019 C 
HETATM    4  C4  UNL     1     -34.098   6.809   6.202  1.00 20.00     0.087 C 
HETATM    5  O5  UNL     1     -33.344   4.453   2.769  1.00 20.00    -0.285 OA
HETATM    6  S6  UNL     1     -33.529   7.016   3.291  1.00 20.00    -0.020 SA
HETATM    7  S7  UNL     1     -32.736   7.384   5.146  1.00 20.00    -0.090 SA
ENDROOT
TORSDOF 0
