REMARK  0 active torsions:
REMARK  status: ('A' for Active; 'I' for Inactive)
ROOT
HETATM    1  C1  UNL     1     -33.541   4.710   4.385  1.00 20.00    -0.080 C 
HETATM    2  C2  UNL     1     -33.829   3.405   4.304  1.00 20.00     0.015 C 
HETATM    3  C3  UNL     1     -32.717   5.312   5.494  1.00 20.00     0.043 C 
HETATM    4  C4  UNL     1     -32.819   7.229   1.900  1.00 20.00     0.002 C 
HETATM    5  C5  UNL     1     -32.455   7.659   3.308  1.00 20.00     0.006 C 
HETATM    6  C6  UNL     1     -33.274   5.791   2.099  1.00 20.00     0.014 C 
HETATM    7  C7  UNL     1     -33.614   7.117   4.157  1.00 20.00     0.006 C 
HETATM    8  C8  UNL     1     -34.039   5.793   3.444  1.00 20.00    -0.017 C 
HETATM    9  C9  UNL     1     -33.270   6.742   5.621  1.00 20.00    -0.040 C 
HETATM   10  C10 UNL     1     -35.553   5.744   3.196  1.00 20.00     0.020 C 
HETATM   11  C11 UNL     1     -34.540   6.749   6.501  1.00 20.00     0.015 C 
HETATM   12  C12 UNL     1     -32.249   7.680   6.278  1.00 20.00     0.015 C 
ENDROOT
TORSDOF 0
