REMARK  0 active torsions:
REMARK  status: ('A' for Active; 'I' for Inactive)
ROOT
HETATM    1  C1  UNL     1     -32.809   7.515   5.386  1.00 20.00    -0.018 C 
HETATM    2  C2  UNL     1     -33.825   4.820   2.697  1.00 20.00    -0.018 C 
HETATM    3  C3  UNL     1     -33.990   6.843   5.517  1.00 20.00    -0.078 C 
HETATM    4  C4  UNL     1     -33.310   6.017   2.292  1.00 20.00    -0.078 C 
HETATM    5  C5  UNL     1     -34.500   5.765   6.458  1.00 20.00     0.035 C 
HETATM    6  C6  UNL     1     -31.987   6.454   1.686  1.00 20.00     0.035 C 
HETATM    7  C7  UNL     1     -34.952   4.596   5.432  1.00 20.00     0.013 C 
HETATM    8  C8  UNL     1     -31.484   7.582   2.734  1.00 20.00     0.013 C 
HETATM    9  C9  UNL     1     -32.288   7.205   3.982  1.00 20.00     0.017 C 
HETATM   10  C10 UNL     1     -34.139   4.966   4.187  1.00 20.00     0.017 C 
HETATM   11  C11 UNL     1     -34.517   6.437   4.205  1.00 20.00     0.030 C 
HETATM   12  C12 UNL     1     -33.619   7.082   3.259  1.00 20.00     0.030 C 
ENDROOT
TORSDOF 0
