REMARK  0 active torsions:
REMARK  status: ('A' for Active; 'I' for Inactive)
ROOT
HETATM    1  C1  UNL     1     -34.140   5.181   6.159  1.00 20.00    -0.021 C 
HETATM    2  C2  UNL     1     -34.039   3.510   4.297  1.00 20.00    -0.021 C 
HETATM    3  C3  UNL     1     -33.775   6.435   5.860  1.00 20.00    -0.023 C 
HETATM    4  C4  UNL     1     -33.625   3.963   3.106  1.00 20.00    -0.023 C 
HETATM    5  C5  UNL     1     -34.888   4.494   5.051  1.00 20.00     0.035 C 
HETATM    6  C6  UNL     1     -34.224   6.801   4.496  1.00 20.00     0.033 A 
HETATM    7  C7  UNL     1     -34.135   5.332   2.860  1.00 20.00     0.033 A 
HETATM    8  C8  UNL     1     -35.103   5.624   4.025  1.00 20.00     0.015 A 
HETATM    9  C9  UNL     1     -33.233   6.502   3.339  1.00 20.00     0.098 A 
HETATM   10 CL10 UNL     1     -32.913   7.834   2.161  1.00 20.00    -0.124 Cl
ENDROOT
TORSDOF 0
