REMARK  0 active torsions:
REMARK  status: ('A' for Active; 'I' for Inactive)
ROOT
HETATM    1  C1  UNL     1     -33.630   7.090   5.792  1.00 20.00    -0.018 C 
HETATM    2  C2  UNL     1     -33.884   4.613   2.835  1.00 20.00    -0.018 C 
HETATM    3  C3  UNL     1     -34.675   6.223   5.708  1.00 20.00    -0.078 C 
HETATM    4  C4  UNL     1     -33.507   5.888   2.620  1.00 20.00    -0.078 C 
HETATM    5  C5  UNL     1     -34.819   4.931   6.444  1.00 20.00     0.035 C 
HETATM    6  C6  UNL     1     -32.220   6.572   2.218  1.00 20.00     0.035 C 
HETATM    7  C7  UNL     1     -34.495   3.907   5.314  1.00 20.00     0.013 C 
HETATM    8  C8  UNL     1     -32.036   7.608   3.420  1.00 20.00     0.013 C 
HETATM    9  C9  UNL     1     -32.971   6.985   4.453  1.00 20.00     0.017 C 
HETATM   10  C10 UNL     1     -34.933   4.524   3.958  1.00 20.00     0.017 C 
HETATM   11  C11 UNL     1     -35.186   5.989   4.317  1.00 20.00     0.030 C 
HETATM   12  C12 UNL     1     -34.191   6.787   3.556  1.00 20.00     0.030 C 
ENDROOT
TORSDOF 0
