REMARK  0 active torsions:
REMARK  status: ('A' for Active; 'I' for Inactive)
ROOT
HETATM    1  C1  UNL     1     -32.158   6.024   4.117  1.00 20.00    -0.019 A 
HETATM    2  C2  UNL     1     -32.909   7.061   4.526  1.00 20.00    -0.019 A 
HETATM    3  C3  UNL     1     -32.532   6.927   1.154  1.00 20.00    -0.023 C 
HETATM    4  C4  UNL     1     -33.271   7.974   1.556  1.00 20.00    -0.086 C 
HETATM    5  C5  UNL     1     -32.741   5.531   1.656  1.00 20.00     0.042 C 
HETATM    6  C6  UNL     1     -34.388   7.813   2.554  1.00 20.00     0.048 C 
HETATM    7  C7  UNL     1     -34.306   4.037   4.907  1.00 20.00     0.001 C 
HETATM    8  C8  UNL     1     -35.164   5.218   5.369  1.00 20.00     0.001 C 
HETATM    9  C9  UNL     1     -33.812   4.132   3.465  1.00 20.00     0.015 C 
HETATM   10  C10 UNL     1     -35.384   6.302   4.316  1.00 20.00     0.015 C 
HETATM   11  C11 UNL     1     -33.207   5.507   3.124  1.00 20.00    -0.009 A 
HETATM   12  C12 UNL     1     -34.085   6.722   3.601  1.00 20.00    -0.008 A 
HETATM   13  C13 UNL     1     -33.055   9.354   1.010  1.00 20.00     0.043 C 
ENDROOT
TORSDOF 0
