REMARK  0 active torsions:
REMARK  status: ('A' for Active; 'I' for Inactive)
ROOT
HETATM    1  C1  UNL     1     -33.001   6.553   3.042  1.00 20.00    -0.080 C 
HETATM    2  C2  UNL     1     -32.291   7.070   2.031  1.00 20.00     0.015 C 
HETATM    3  C3  UNL     1     -33.016   7.138   4.431  1.00 20.00     0.043 C 
HETATM    4  C4  UNL     1     -33.821   3.167   3.992  1.00 20.00     0.002 C 
HETATM    5  C5  UNL     1     -34.088   4.177   5.092  1.00 20.00     0.006 C 
HETATM    6  C6  UNL     1     -33.186   4.021   2.905  1.00 20.00     0.014 C 
HETATM    7  C7  UNL     1     -34.674   5.379   4.336  1.00 20.00     0.006 C 
HETATM    8  C8  UNL     1     -33.946   5.367   2.954  1.00 20.00    -0.017 C 
HETATM    9  C9  UNL     1     -34.412   6.772   4.964  1.00 20.00    -0.040 C 
HETATM   10  C10 UNL     1     -34.941   5.459   1.789  1.00 20.00     0.020 C 
HETATM   11  C11 UNL     1     -35.458   7.798   4.475  1.00 20.00     0.015 C 
HETATM   12  C12 UNL     1     -34.444   6.777   6.498  1.00 20.00     0.015 C 
ENDROOT
TORSDOF 0
