REMARK  1 active torsions:
REMARK  status: ('A' for Active; 'I' for Inactive)
REMARK    1  A    between atoms: C2_2  and  C3_3 
ROOT
HETATM    1  C1  UNL     1     -33.298   6.036   2.394  1.00 20.00     0.105 C 
HETATM    2  C2  UNL     1     -33.699   5.845   3.656  1.00 20.00     0.036 C 
HETATM    3 CL4  UNL     1     -32.633   7.490   1.779  1.00 20.00    -0.096 Cl
HETATM    4 CL5  UNL     1     -34.357   4.293   4.088  1.00 20.00    -0.087 Cl
ENDROOT
BRANCH   2   5
HETATM    5  C3  UNL     1     -33.690   6.852   4.764  1.00 20.00     0.166 C 
HETATM    6 CL6  UNL     1     -34.317   6.131   6.264  1.00 20.00    -0.125 Cl
ENDBRANCH   2   5
TORSDOF 1
