REMARK  0 active torsions:
REMARK  status: ('A' for Active; 'I' for Inactive)
ROOT
HETATM    1  C1  UNL     1     -33.736   4.554   2.554  1.00 20.00    -0.020 C 
HETATM    2  C2  UNL     1     -32.595   5.318   2.521  1.00 20.00    -0.020 C 
HETATM    3  C3  UNL     1     -34.310   6.775   5.506  1.00 20.00     0.002 C 
HETATM    4  C4  UNL     1     -35.079   5.665   4.726  1.00 20.00     0.014 C 
HETATM    5  C5  UNL     1     -32.951   6.937   4.759  1.00 20.00     0.014 C 
HETATM    6  C6  UNL     1     -33.937   4.982   4.004  1.00 20.00    -0.016 C 
HETATM    7  C7  UNL     1     -33.296   6.339   3.411  1.00 20.00    -0.016 C 
HETATM    8  C8  UNL     1     -33.245   3.970   4.955  1.00 20.00     0.020 C 
HETATM    9  C9  UNL     1     -34.016   7.398   2.536  1.00 20.00     0.020 C 
ENDROOT
TORSDOF 0
