REMARK  0 active torsions:
REMARK  status: ('A' for Active; 'I' for Inactive)
ROOT
HETATM    1  C1  UNL     1     -34.685   4.511   5.622  1.00 20.00    -0.025 C 
HETATM    2  C2  UNL     1     -34.393   4.050   4.396  1.00 20.00    -0.025 C 
HETATM    3  C3  UNL     1     -35.670   5.951   4.107  1.00 20.00     0.017 C 
HETATM    4  C4  UNL     1     -33.686   6.729   5.155  1.00 20.00     0.013 C 
HETATM    5  C5  UNL     1     -34.999   5.982   5.482  1.00 20.00     0.009 C 
HETATM    6  C6  UNL     1     -34.498   5.220   3.441  1.00 20.00     0.012 C 
HETATM    7  C7  UNL     1     -33.306   6.164   3.749  1.00 20.00    -0.010 C 
HETATM    8  C8  UNL     1     -33.135   7.265   2.709  1.00 20.00     0.010 C 
ENDROOT
TORSDOF 0
