REMARK  2 active torsions:
REMARK  status: ('A' for Active; 'I' for Inactive)
REMARK    1  A    between atoms: C7_7  and  C9_9 
REMARK    2  A    between atoms: C8_8  and  C10_10 
ROOT
HETATM    1  C1  UNL     1     -32.019   6.656   2.382  1.00 20.00    -0.030 C 
HETATM    2  C2  UNL     1     -32.681   7.459   3.246  1.00 20.00    -0.025 C 
HETATM    3  C5  UNL     1     -32.395   5.183   2.569  1.00 20.00     0.032 C 
HETATM    4  C9  UNL     1     -33.378   6.580   4.221  1.00 20.00     0.020 C 
HETATM    5  C10 UNL     1     -33.730   5.451   3.213  1.00 20.00     0.005 C 
ENDROOT
BRANCH   4   6
HETATM    6  C7  UNL     1     -34.663   6.589   5.086  1.00 20.00     0.016 C 
HETATM    7  C3  UNL     1     -34.380   5.474   6.092  1.00 20.00    -0.025 C 
HETATM    8  C4  UNL     1     -34.358   4.312   5.411  1.00 20.00    -0.025 C 
HETATM    9  C8  UNL     1     -34.748   4.610   3.983  1.00 20.00     0.013 C 
HETATM   10  C6  UNL     1     -35.712   5.797   4.291  1.00 20.00     0.018 C 
ENDBRANCH   4   6
TORSDOF 2
