REMARK  1 active torsions:
REMARK  status: ('A' for Active; 'I' for Inactive)
REMARK    1  A    between atoms: C1_1  and  C4_4 
ROOT
HETATM    1  C1  UNL     1     -33.389   6.446   4.312  1.00 20.00     0.102 C 
HETATM    2  C2  UNL     1     -33.116   5.877   3.124  1.00 20.00    -0.015 C 
HETATM    3  C3  UNL     1     -33.470   4.470   2.736  1.00 20.00     0.055 C 
HETATM    4  I8  UNL     1     -32.119   6.994   1.662  1.00 20.00    -0.050 I 
ENDROOT
BRANCH   1   5
HETATM    5  C4  UNL     1     -34.088   5.788   5.451  1.00 20.00     0.408 C 
HETATM    6  F5  UNL     1     -34.219   6.614   6.519  1.00 20.00    -0.167 F 
HETATM    7  F6  UNL     1     -33.439   4.676   5.879  1.00 20.00    -0.167 F 
HETATM    8  F7  UNL     1     -35.342   5.397   5.105  1.00 20.00    -0.167 F 
ENDBRANCH   1   5
TORSDOF 1
