REMARK  2 active torsions:
REMARK  status: ('A' for Active; 'I' for Inactive)
REMARK    1  A    between atoms: C1_1  and  C2_2 
REMARK    2  A    between atoms: C1_1  and  C3_3 
ROOT
HETATM    1  C1  UNL     1     -33.679   6.799   3.888  1.00 20.00     0.386 C 
HETATM    2  F4  UNL     1     -32.464   7.020   4.470  1.00 20.00    -0.191 F 
HETATM    3  F5  UNL     1     -34.330   7.998   3.927  1.00 20.00    -0.191 F 
ENDROOT
BRANCH   1   4
HETATM    4  C2  UNL     1     -34.442   5.828   4.780  1.00 20.00     0.390 C 
HETATM    5  F6  UNL     1     -33.763   4.649   4.807  1.00 20.00    -0.181 F 
HETATM    6  F7  UNL     1     -35.658   5.549   4.249  1.00 20.00    -0.181 F 
HETATM    7 CL9  UNL     1     -34.640   6.402   6.444  1.00 20.00    -0.042 Cl
ENDBRANCH   1   4
BRANCH   1   8
HETATM    8  C3  UNL     1     -33.460   6.413   2.424  1.00 20.00     0.328 C 
HETATM    9  F8  UNL     1     -32.757   5.251   2.358  1.00 20.00    -0.200 F 
HETATM   10 CL10 UNL     1     -32.575   7.663   1.516  1.00 20.00    -0.059 Cl
HETATM   11 CL11 UNL     1     -35.035   6.137   1.621  1.00 20.00    -0.059 Cl
ENDBRANCH   1   8
TORSDOF 2
