REMARK  3 active torsions:
REMARK  status: ('A' for Active; 'I' for Inactive)
REMARK    1  A    between atoms: C2_2  and  C5_5 
REMARK    2  A    between atoms: C4_4  and  C5_5 
REMARK    3  A    between atoms: C4_4  and  C6_6 
ROOT
HETATM    1  C4  UNL     1     -33.934   5.974   3.421  1.00 20.00     0.353 C 
HETATM    2  F7  UNL     1     -33.691   4.691   3.016  1.00 20.00    -0.233 F 
ENDROOT
BRANCH   1   3
HETATM    3  C5  UNL     1     -32.747   6.821   2.973  1.00 20.00     0.300 C 
HETATM    4  F8  UNL     1     -31.768   5.990   2.520  1.00 20.00    -0.198 F 
HETATM    5  F9  UNL     1     -32.232   7.428   4.081  1.00 20.00    -0.198 F 
BRANCH   3   6
HETATM    6  C2  UNL     1     -33.100   7.870   1.961  1.00 20.00     0.050 C 
HETATM    7  C1  UNL     1     -32.575   7.945   0.730  1.00 20.00    -0.029 C 
HETATM    8  C3  UNL     1     -32.936   8.999  -0.264  1.00 20.00     0.036 C 
ENDBRANCH   3   6
ENDBRANCH   1   3
BRANCH   1   9
HETATM    9  C6  UNL     1     -34.161   5.931   4.917  1.00 20.00     0.424 C 
HETATM   10  F10 UNL     1     -35.148   5.074   5.252  1.00 20.00    -0.168 F 
HETATM   11  F11 UNL     1     -33.044   5.560   5.576  1.00 20.00    -0.168 F 
HETATM   12  F12 UNL     1     -34.520   7.153   5.372  1.00 20.00    -0.168 F 
ENDBRANCH   1   9
TORSDOF 3
