REMARK  1 active torsions:
REMARK  status: ('A' for Active; 'I' for Inactive)
REMARK    1  A    between atoms: C2_2  and  C10_10 
ROOT
HETATM    1  C1  UNL     1     -32.996   5.048   2.643  1.00 20.00    -0.018 A 
HETATM    2  C2  UNL     1     -33.168   6.341   2.980  1.00 20.00    -0.075 A 
HETATM    3  C3  UNL     1     -34.792   4.700   5.682  1.00 20.00     0.001 C 
HETATM    4  C4  UNL     1     -34.085   3.817   4.661  1.00 20.00     0.009 C 
HETATM    5  C5  UNL     1     -34.399   6.112   5.268  1.00 20.00     0.010 C 
HETATM    6  C6  UNL     1     -34.250   4.582   3.349  1.00 20.00     0.016 A 
HETATM    7  C7  UNL     1     -34.455   6.067   3.741  1.00 20.00     0.022 A 
ENDROOT
BRANCH   2   8
HETATM    8  C10 UNL     1     -32.366   7.628   2.707  1.00 20.00     0.006 C 
HETATM    9  C8  UNL     1     -32.837   8.227   1.401  1.00 20.00     0.014 C 
HETATM   10  C9  UNL     1     -32.530   8.577   3.872  1.00 20.00     0.014 C 
ENDBRANCH   2   8
TORSDOF 1
