REMARK  0 active torsions:
REMARK  status: ('A' for Active; 'I' for Inactive)
ROOT
HETATM    1  C1  UNL     1     -33.816   4.780   2.849  1.00 20.00     0.004 C 
HETATM    2  C2  UNL     1     -34.554   4.178   3.830  1.00 20.00    -0.017 C 
HETATM    3  C3  UNL     1     -35.065   5.506   6.254  1.00 20.00    -0.021 C 
HETATM    4  C4  UNL     1     -34.501   6.732   6.503  1.00 20.00    -0.024 C 
HETATM    5  C5  UNL     1     -32.558   7.128   3.257  1.00 20.00    -0.019 C 
HETATM    6  C6  UNL     1     -33.287   6.016   3.349  1.00 20.00    -0.056 C 
HETATM    7  C7  UNL     1     -32.814   8.006   4.528  1.00 20.00     0.036 C 
HETATM    8  C8  UNL     1     -34.281   4.807   5.173  1.00 20.00     0.039 C 
HETATM    9  C9  UNL     1     -33.325   6.974   5.566  1.00 20.00     0.020 C 
HETATM   10  C10 UNL     1     -34.045   6.143   4.565  1.00 20.00     0.037 C 
ENDROOT
TORSDOF 0
