REMARK  0 active torsions:
REMARK  status: ('A' for Active; 'I' for Inactive)
ROOT
HETATM    1  C1  UNL     1     -34.934   4.643   5.570  1.00 20.00     0.006 C 
HETATM    2  C2  UNL     1     -34.162   4.549   4.253  1.00 20.00     0.009 C 
HETATM    3  C3  UNL     1     -34.533   5.866   6.356  1.00 20.00    -0.005 A 
HETATM    4  C4  UNL     1     -33.339   6.684   5.971  1.00 20.00    -0.000 A 
HETATM    5  C5  UNL     1     -34.760   7.209   5.749  1.00 20.00    -0.000 A 
HETATM    6  C6  UNL     1     -33.821   7.030   4.595  1.00 20.00     0.003 A 
HETATM    7  C7  UNL     1     -34.044   5.927   3.556  1.00 20.00    -0.043 C 
HETATM    8  C8  UNL     1     -32.843   5.893   2.591  1.00 20.00     0.015 C 
HETATM    9  C9  UNL     1     -35.312   6.222   2.734  1.00 20.00     0.015 C 
ENDROOT
TORSDOF 0
