REMARK  0 active torsions:
REMARK  status: ('A' for Active; 'I' for Inactive)
ROOT
HETATM    1  C1  UNL     1     -34.668   5.101   6.130  1.00 20.00    -0.021 C 
HETATM    2  C2  UNL     1     -33.925   3.673   4.020  1.00 20.00    -0.021 C 
HETATM    3  C3  UNL     1     -33.967   6.262   6.093  1.00 20.00    -0.023 C 
HETATM    4  C4  UNL     1     -33.315   4.281   2.970  1.00 20.00    -0.023 C 
HETATM    5  C5  UNL     1     -34.950   4.539   4.736  1.00 20.00     0.035 C 
HETATM    6  C6  UNL     1     -33.362   6.301   4.768  1.00 20.00     0.033 C 
HETATM    7  C7  UNL     1     -33.809   5.695   2.771  1.00 20.00     0.033 C 
HETATM    8  C8  UNL     1     -34.719   5.821   3.980  1.00 20.00     0.015 C 
HETATM    9  C9  UNL     1     -33.146   7.006   3.448  1.00 20.00     0.098 C 
HETATM   10 CL10 UNL     1     -31.471   7.438   2.970  1.00 20.00    -0.124 Cl
ENDROOT
TORSDOF 0
