REMARK  0 active torsions:
REMARK  status: ('A' for Active; 'I' for Inactive)
ROOT
HETATM    1  C1  UNL     1     -33.816   4.250   3.271  1.00 20.00     0.135 C 
HETATM    2  C2  UNL     1     -32.451   4.722   2.839  1.00 20.00     0.080 C 
HETATM    3  C3  UNL     1     -32.529   5.879   1.851  1.00 20.00     0.016 C 
HETATM    4  C4  UNL     1     -35.861   5.464   4.268  1.00 20.00     0.023 A 
HETATM    5  C5  UNL     1     -34.519   7.157   2.853  1.00 20.00     0.014 C 
HETATM    6  C6  UNL     1     -34.748   6.469   4.168  1.00 20.00     0.003 A 
HETATM    7  C7  UNL     1     -34.424   5.003   4.407  1.00 20.00     0.021 A 
HETATM    8  C8  UNL     1     -33.041   7.240   2.399  1.00 20.00    -0.047 C 
HETATM    9  C9  UNL     1     -33.988   4.601   5.796  1.00 20.00     0.024 C 
HETATM   10  C10 UNL     1     -32.131   7.773   3.521  1.00 20.00     0.015 C 
HETATM   11  C11 UNL     1     -32.975   8.252   1.228  1.00 20.00     0.015 C 
HETATM   12  O12 UNL     1     -34.402   3.308   2.751  1.00 20.00    -0.297 OA
ENDROOT
TORSDOF 0
