REMARK  0 active torsions:
REMARK  status: ('A' for Active; 'I' for Inactive)
ROOT
HETATM    1  C1  UNL     1     -35.331   7.046   4.196  1.00 20.00    -0.020 A 
HETATM    2  C2  UNL     1     -35.790   5.781   4.218  1.00 20.00    -0.020 A 
HETATM    3  C3  UNL     1     -33.216   5.534   2.545  1.00 20.00     0.002 C 
HETATM    4  C4  UNL     1     -32.861   6.696   3.465  1.00 20.00     0.014 C 
HETATM    5  C5  UNL     1     -33.679   4.443   3.504  1.00 20.00     0.014 C 
HETATM    6  C6  UNL     1     -33.909   6.655   4.593  1.00 20.00    -0.016 A 
HETATM    7  C7  UNL     1     -34.443   5.181   4.619  1.00 20.00    -0.016 A 
HETATM    8  C8  UNL     1     -33.413   7.307   5.876  1.00 20.00     0.020 C 
HETATM    9  C9  UNL     1     -34.467   4.403   5.926  1.00 20.00     0.020 C 
ENDROOT
TORSDOF 0
