REMARK  0 active torsions:
REMARK  status: ('A' for Active; 'I' for Inactive)
ROOT
HETATM    1  C1  UNL     1     -34.339   4.130   5.272  1.00 20.00     0.123 C 
HETATM    2  C2  UNL     1     -32.535   5.483   2.729  1.00 20.00     0.123 C 
HETATM    3  C3  UNL     1     -33.176   7.315   5.521  1.00 20.00     0.123 C 
HETATM    4  C4  UNL     1     -35.000   5.504   5.142  1.00 20.00     0.296 C 
HETATM    5  C5  UNL     1     -34.027   5.205   2.928  1.00 20.00     0.296 C 
HETATM    6  C6  UNL     1     -33.752   7.321   4.103  1.00 20.00     0.296 C 
HETATM    7  N7  UNL     1     -34.617   6.155   3.881  1.00 20.00     0.133 N 
HETATM    8  S8  UNL     1     -34.274   3.530   3.573  1.00 20.00    -0.130 SA
HETATM    9  S9  UNL     1     -32.416   7.275   2.881  1.00 20.00    -0.130 SA
HETATM   10  S10 UNL     1     -34.492   6.579   6.509  1.00 20.00    -0.130 SA
ENDROOT
TORSDOF 0
