REMARK  1 active torsions:
REMARK  status: ('A' for Active; 'I' for Inactive)
REMARK    1  A    between atoms: C5_5  and  O10_10 
ROOT
HETATM    1  C1  UNL     1     -33.012   7.403   4.271  1.00 20.00     0.001 C 
HETATM    2  C2  UNL     1     -33.856   6.917   5.193  1.00 20.00    -0.018 C 
HETATM    3  C3  UNL     1     -33.791   5.672   2.610  1.00 20.00     0.046 C 
HETATM    4  C4  UNL     1     -35.702   5.362   4.332  1.00 20.00     0.024 A 
HETATM    5  C5  UNL     1     -32.656   6.607   3.050  1.00 20.00     0.141 C 
HETATM    6  C6  UNL     1     -34.446   5.560   5.143  1.00 20.00    -0.018 A 
HETATM    7  C7  UNL     1     -34.384   4.875   3.764  1.00 20.00    -0.030 A 
HETATM    8  C8  UNL     1     -34.283   4.749   6.403  1.00 20.00     0.020 C 
HETATM    9  C9  UNL     1     -34.158   3.389   3.665  1.00 20.00     0.016 C 
ENDROOT
BRANCH   5  10
HETATM   10  O10 UNL     1     -32.377   7.515   1.987  1.00 20.00    -0.392 OA
HETATM   11  H24 UNL     1     -32.151   6.973   1.215  1.00 20.00     0.210 HD
ENDBRANCH   5  10
TORSDOF 1
