REMARK  0 active torsions:
REMARK  status: ('A' for Active; 'I' for Inactive)
ROOT
HETATM    1  C1  UNL     1     -35.578   5.848   3.539  1.00 20.00    -0.019 A 
HETATM    2  C2  UNL     1     -35.250   7.121   3.820  1.00 20.00    -0.019 A 
HETATM    3  C3  UNL     1     -33.244   5.712   1.471  1.00 20.00    -0.023 C 
HETATM    4  C4  UNL     1     -32.919   6.988   1.737  1.00 20.00    -0.086 C 
HETATM    5  C5  UNL     1     -33.507   4.690   2.534  1.00 20.00     0.042 C 
HETATM    6  C6  UNL     1     -32.788   7.489   3.152  1.00 20.00     0.048 C 
HETATM    7  C7  UNL     1     -34.644   4.906   6.264  1.00 20.00     0.001 C 
HETATM    8  C8  UNL     1     -34.270   6.355   6.585  1.00 20.00     0.001 C 
HETATM    9  C9  UNL     1     -34.022   4.353   4.983  1.00 20.00     0.015 C 
HETATM   10  C10 UNL     1     -33.336   7.015   5.572  1.00 20.00     0.015 C 
HETATM   11  C11 UNL     1     -34.162   5.309   3.783  1.00 20.00    -0.009 A 
HETATM   12  C12 UNL     1     -33.779   6.798   4.112  1.00 20.00    -0.008 A 
HETATM   13  C13 UNL     1     -32.630   7.977   0.647  1.00 20.00     0.043 C 
ENDROOT
TORSDOF 0
