REMARK  0 active torsions:
REMARK  status: ('A' for Active; 'I' for Inactive)
ROOT
HETATM    1  C1  UNL     1     -35.027   5.142   6.012  1.00 20.00    -0.021 C 
HETATM    2  C2  UNL     1     -34.160   6.144   6.303  1.00 20.00    -0.021 C 
HETATM    3  C3  UNL     1     -34.169   3.906   3.827  1.00 20.00    -0.021 C 
HETATM    4  C4  UNL     1     -33.421   4.527   2.882  1.00 20.00    -0.021 C 
HETATM    5  C5  UNL     1     -32.643   7.405   4.389  1.00 20.00    -0.015 C 
HETATM    6  C6  UNL     1     -32.699   7.079   3.072  1.00 20.00    -0.079 C 
HETATM    7  C7  UNL     1     -35.124   4.852   4.518  1.00 20.00     0.036 C 
HETATM    8  C8  UNL     1     -33.345   6.324   5.095  1.00 20.00     0.036 C 
HETATM    9  C9  UNL     1     -33.742   6.001   2.768  1.00 20.00     0.042 C 
HETATM   10  C10 UNL     1     -34.484   6.136   4.069  1.00 20.00     0.020 C 
HETATM   11  C11 UNL     1     -31.954   7.736   1.966  1.00 20.00     0.044 C 
ENDROOT
TORSDOF 0
