REMARK  1 active torsions:
REMARK  status: ('A' for Active; 'I' for Inactive)
REMARK    1  A    between atoms: C1_1  and  C3_3 
ROOT
HETATM    1  C1  UNL     1     -33.274   6.728   3.040  1.00 20.00     0.043 C 
HETATM    2  C2  UNL     1     -33.755   5.479   3.053  1.00 20.00     0.183 C 
HETATM    3  F4  UNL     1     -33.322   4.579   2.143  1.00 20.00    -0.193 F 
HETATM    4 CL5  UNL     1     -34.928   4.986   4.215  1.00 20.00    -0.052 Cl
ENDROOT
BRANCH   1   5
HETATM    5  C3  UNL     1     -32.250   7.218   2.069  1.00 20.00     0.145 C 
HETATM    6 CL6  UNL     1     -32.911   8.569   1.124  1.00 20.00    -0.126 Cl
ENDBRANCH   1   5
TORSDOF 1
