REMARK  1 active torsions:
REMARK  status: ('A' for Active; 'I' for Inactive)
REMARK    1  A    between atoms: C8_8  and  O12_12 
ROOT
HETATM    1  C1  UNL     1     -32.970   6.203   2.459  1.00 20.00    -0.049 C 
HETATM    2  C2  UNL     1     -34.233   5.262   4.480  1.00 20.00     0.135 C 
HETATM    3  C3  UNL     1     -32.658   5.168   1.676  1.00 20.00     0.017 C 
HETATM    4  C4  UNL     1     -33.571   5.344   5.844  1.00 20.00     0.079 C 
HETATM    5  C5  UNL     1     -33.241   6.775   6.255  1.00 20.00     0.008 C 
HETATM    6  C6  UNL     1     -32.359   7.445   5.206  1.00 20.00     0.009 C 
HETATM    7  C7  UNL     1     -34.050   6.441   3.497  1.00 20.00     0.092 C 
HETATM    8  C8  UNL     1     -32.370   7.589   2.601  1.00 20.00     0.155 C 
HETATM    9  C9  UNL     1     -33.175   7.649   3.928  1.00 20.00     0.034 C 
HETATM   10  O11 UNL     1     -34.868   4.240   4.186  1.00 20.00    -0.297 OA
ENDROOT
BRANCH   8  11
HETATM   11  O12 UNL     1     -32.776   8.513   1.575  1.00 20.00    -0.386 OA
HETATM   12  C10 UNL     1     -32.398   8.045   0.295  1.00 20.00     0.202 C 
ENDBRANCH   8  11
TORSDOF 1
