REMARK  2 active torsions:
REMARK  status: ('A' for Active; 'I' for Inactive)
REMARK    1  A    between atoms: C7_7  and  C10_10 
REMARK    2  A    between atoms: C8_8  and  C9_9 
ROOT
HETATM    1  C1  UNL     1     -33.637   7.878   2.421  1.00 20.00    -0.019 C 
HETATM    2  C3  UNL     1     -32.718   7.155   1.735  1.00 20.00    -0.087 C 
HETATM    3  C5  UNL     1     -32.431   5.808   2.417  1.00 20.00     0.039 C 
HETATM    4  C8  UNL     1     -34.195   6.994   3.478  1.00 20.00     0.021 C 
HETATM    5  C10 UNL     1     -32.875   6.240   3.791  1.00 20.00     0.005 C 
HETATM    6  C11 UNL     1     -32.006   7.551   0.495  1.00 20.00     0.043 C 
ENDROOT
BRANCH   4   7
HETATM    7  C9  UNL     1     -34.791   7.120   4.903  1.00 20.00     0.022 C 
HETATM    8  C4  UNL     1     -35.489   5.767   5.079  1.00 20.00    -0.082 C 
HETATM    9  C2  UNL     1     -34.532   4.819   5.120  1.00 20.00    -0.019 C 
HETATM   10  C12 UNL     1     -36.962   5.614   5.087  1.00 20.00     0.043 C 
HETATM   11  C7  UNL     1     -33.194   5.518   5.100  1.00 20.00     0.014 C 
HETATM   12  C6  UNL     1     -33.636   6.803   5.867  1.00 20.00     0.018 C 
ENDBRANCH   4   7
TORSDOF 2
