REMARK  0 active torsions:
REMARK  status: ('A' for Active; 'I' for Inactive)
ROOT
HETATM    1  C1  UNL     1     -34.297   5.192   6.256  1.00 20.00    -0.025 A 
HETATM    2  C2  UNL     1     -34.361   4.177   5.389  1.00 20.00    -0.025 A 
HETATM    3  C3  UNL     1     -33.373   7.471   5.600  1.00 20.00     0.009 C 
HETATM    4  C4  UNL     1     -33.514   4.410   3.013  1.00 20.00     0.009 C 
HETATM    5  C5  UNL     1     -32.597   7.101   4.341  1.00 20.00     0.005 C 
HETATM    6  C6  UNL     1     -33.343   5.740   2.287  1.00 20.00     0.005 C 
HETATM    7  C7  UNL     1     -34.569   6.519   5.618  1.00 20.00     0.013 A 
HETATM    8  C8  UNL     1     -34.664   4.633   4.000  1.00 20.00     0.013 A 
HETATM    9  C9  UNL     1     -33.697   6.793   3.325  1.00 20.00    -0.009 C 
HETATM   10  C10 UNL     1     -34.825   6.159   4.146  1.00 20.00     0.005 A 
ENDROOT
TORSDOF 0
