REMARK  0 active torsions:
REMARK  status: ('A' for Active; 'I' for Inactive)
ROOT
HETATM    1  C1  UNL     1     -34.321   6.084   6.083  1.00 20.00     0.003 C 
HETATM    2  C2  UNL     1     -33.650   7.077   5.487  1.00 20.00     0.050 C 
HETATM    3  C3  UNL     1     -34.432   4.709   5.660  1.00 20.00    -0.004 C 
HETATM    4  C4  UNL     1     -34.468   4.259   4.398  1.00 20.00    -0.021 C 
HETATM    5  C5  UNL     1     -32.945   6.963   4.191  1.00 20.00     0.154 C 
HETATM    6  C6  UNL     1     -33.108   5.104   2.420  1.00 20.00     0.022 A 
HETATM    7  C7  UNL     1     -34.416   5.036   3.161  1.00 20.00     0.020 A 
HETATM    8  C8  UNL     1     -33.676   6.341   3.065  1.00 20.00     0.068 A 
HETATM    9  O9  UNL     1     -31.845   7.474   4.019  1.00 20.00    -0.293 OA
ENDROOT
TORSDOF 0
