REMARK  1 active torsions:
REMARK  status: ('A' for Active; 'I' for Inactive)
REMARK    1  A    between atoms: C1_1  and  C4_4 
ROOT
HETATM    1  C3  UNL     1     -32.171   6.620   3.106  1.00 20.00     0.018 A 
HETATM    2  C4  UNL     1     -33.636   6.895   3.321  1.00 20.00     0.017 A 
HETATM    3  C5  UNL     1     -33.107   6.636   1.922  1.00 20.00    -0.040 A 
HETATM    4  C8  UNL     1     -33.036   7.812   0.983  1.00 20.00     0.015 C 
HETATM    5  C9  UNL     1     -33.381   5.323   1.231  1.00 20.00     0.015 C 
ENDROOT
BRANCH   2   6
HETATM    6  C1  UNL     1     -34.446   5.903   4.013  1.00 20.00    -0.019 C 
HETATM    7  C2  UNL     1     -34.567   5.720   5.342  1.00 20.00    -0.091 C 
HETATM    8  C6  UNL     1     -35.453   4.641   5.901  1.00 20.00     0.042 C 
HETATM    9  C7  UNL     1     -33.850   6.550   6.369  1.00 20.00     0.042 C 
ENDBRANCH   2   6
TORSDOF 1
