REMARK  0 active torsions:
REMARK  status: ('A' for Active; 'I' for Inactive)
ROOT
HETATM    1  C1  UNL     1     -33.347   5.387   2.981  1.00 20.00     0.014 C 
HETATM    2  C2  UNL     1     -33.706   6.938   4.949  1.00 20.00     0.014 C 
HETATM    3  C3  UNL     1     -34.543   4.656   3.529  1.00 20.00    -0.004 A 
HETATM    4  C4  UNL     1     -34.861   6.025   5.266  1.00 20.00    -0.004 A 
HETATM    5  C5  UNL     1     -35.665   5.397   4.177  1.00 20.00    -0.001 A 
HETATM    6  C6  UNL     1     -34.700   4.564   5.010  1.00 20.00    -0.001 A 
HETATM    7  C7  UNL     1     -33.268   6.854   3.467  1.00 20.00    -0.046 C 
HETATM    8  C8  UNL     1     -34.163   7.757   2.592  1.00 20.00     0.015 C 
HETATM    9  C9  UNL     1     -31.820   7.360   3.333  1.00 20.00     0.015 C 
ENDROOT
TORSDOF 0
