REMARK  0 active torsions:
REMARK  status: ('A' for Active; 'I' for Inactive)
ROOT
HETATM    1  C1  UNL     1     -33.755   5.425   2.168  1.00 20.00    -0.023 C 
HETATM    2  C2  UNL     1     -33.299   6.687   2.131  1.00 20.00    -0.080 C 
HETATM    3  C3  UNL     1     -34.441   5.454   5.415  1.00 20.00     0.127 C 
HETATM    4  C4  UNL     1     -33.563   4.425   3.266  1.00 20.00     0.035 C 
HETATM    5  C5  UNL     1     -33.613   7.594   0.964  1.00 20.00     0.034 C 
HETATM    6  C6  UNL     1     -34.697   4.476   4.284  1.00 20.00     0.082 C 
HETATM    7  C7  UNL     1     -34.220   6.916   5.078  1.00 20.00     0.079 C 
HETATM    8  C8  UNL     1     -32.907   8.898   1.304  1.00 20.00     0.005 C 
HETATM    9  C9  UNL     1     -32.769   7.174   4.677  1.00 20.00     0.016 C 
HETATM   10  C10 UNL     1     -32.873   8.909   2.824  1.00 20.00     0.009 C 
HETATM   11  C11 UNL     1     -32.532   7.456   3.185  1.00 20.00     0.014 C 
HETATM   12  O12 UNL     1     -34.429   5.072   6.587  1.00 20.00    -0.298 OA
ENDROOT
TORSDOF 0
