REMARK  0 active torsions:
REMARK  status: ('A' for Active; 'I' for Inactive)
ROOT
HETATM    1  C1  UNL     1     -33.765   4.171   3.470  1.00 20.00     0.131 C 
HETATM    2  C2  UNL     1     -33.005   4.688   2.211  1.00 20.00     0.083 C 
HETATM    3  C3  UNL     1     -34.338   5.739   5.687  1.00 20.00     0.013 C 
HETATM    4  C4  UNL     1     -34.049   7.293   5.637  1.00 20.00     0.006 C 
HETATM    5  C5  UNL     1     -32.022   7.323   2.325  1.00 20.00     0.006 C 
HETATM    6  C6  UNL     1     -32.410   8.288   3.556  1.00 20.00     0.005 C 
HETATM    7  C7  UNL     1     -34.447   5.316   4.220  1.00 20.00     0.060 C 
HETATM    8  C8  UNL     1     -32.464   5.946   2.830  1.00 20.00    -0.002 C 
HETATM    9  C9  UNL     1     -32.994   7.300   4.565  1.00 20.00    -0.009 C 
HETATM   10  C10 UNL     1     -33.686   6.423   3.562  1.00 20.00     0.005 C 
HETATM   11  O11 UNL     1     -33.866   2.991   3.777  1.00 20.00    -0.298 OA
ENDROOT
TORSDOF 0
