REMARK  0 active torsions:
REMARK  status: ('A' for Active; 'I' for Inactive)
ROOT
HETATM    1  C1  UNL     1     -33.603   7.368   5.773  1.00 20.00     0.004 C 
HETATM    2  C2  UNL     1     -34.570   6.318   6.315  1.00 20.00     0.005 C 
HETATM    3  C3  UNL     1     -32.792   6.826   4.594  1.00 20.00     0.042 C 
HETATM    4  C4  UNL     1     -34.768   4.378   4.621  1.00 20.00     0.013 A 
HETATM    5  C5  UNL     1     -35.350   5.627   5.237  1.00 20.00    -0.007 A 
HETATM    6  C6  UNL     1     -34.887   5.633   3.797  1.00 20.00     0.029 A 
HETATM    7  C7  UNL     1     -33.691   6.455   3.405  1.00 20.00     0.117 C 
HETATM    8 CL8  UNL     1     -32.743   5.544   2.189  1.00 20.00    -0.101 Cl
HETATM    9 CL9  UNL     1     -34.298   7.956   2.615  1.00 20.00    -0.101 Cl
ENDROOT
TORSDOF 0
