REMARK  0 active torsions:
REMARK  status: ('A' for Active; 'I' for Inactive)
ROOT
HETATM    1  C1  UNL     1     -33.666   6.914   4.361  1.00 20.00     0.129 C 
HETATM    2  C2  UNL     1     -33.373   6.784   2.854  1.00 20.00     0.254 C 
HETATM    3  C3  UNL     1     -34.379   5.548   4.288  1.00 20.00     0.313 C 
HETATM    4  C4  UNL     1     -33.526   5.253   3.027  1.00 20.00     0.338 C 
HETATM    5  F5  UNL     1     -32.157   7.212   2.448  1.00 20.00    -0.243 F 
HETATM    6  F6  UNL     1     -34.177   4.722   5.338  1.00 20.00    -0.199 F 
HETATM    7  F7  UNL     1     -35.715   5.603   4.081  1.00 20.00    -0.199 F 
HETATM    8  F8  UNL     1     -32.375   4.580   3.254  1.00 20.00    -0.196 F 
HETATM    9  F9  UNL     1     -34.165   4.610   2.025  1.00 20.00    -0.196 F 
ENDROOT
TORSDOF 0
