REMARK  3 active torsions:
REMARK  status: ('A' for Active; 'I' for Inactive)
REMARK    1  A    between atoms: C1_1  and  C3_3 
REMARK    2  A    between atoms: C1_1  and  C4_4 
REMARK    3  A    between atoms: C2_2  and  C3_3 
ROOT
HETATM    1  C1  UNL     1     -33.663   6.613   4.026  1.00 20.00     0.197 C 
ENDROOT
BRANCH   1   2
HETATM    2  C3  UNL     1     -33.350   6.096   2.626  1.00 20.00     0.264 C 
HETATM    3  F5  UNL     1     -34.494   6.051   1.898  1.00 20.00    -0.205 F 
HETATM    4  F6  UNL     1     -32.880   4.826   2.711  1.00 20.00    -0.205 F 
BRANCH   2   5
HETATM    5  C2  UNL     1     -32.329   6.967   1.913  1.00 20.00     0.193 C 
HETATM    6 CL10 UNL     1     -32.945   8.627   1.718  1.00 20.00    -0.124 Cl
ENDBRANCH   2   5
ENDBRANCH   1   2
BRANCH   1   7
HETATM    7  C4  UNL     1     -34.695   5.764   4.740  1.00 20.00     0.393 C 
HETATM    8  F7  UNL     1     -34.982   6.257   5.963  1.00 20.00    -0.171 F 
HETATM    9  F8  UNL     1     -35.847   5.730   4.033  1.00 20.00    -0.171 F 
HETATM   10  F9  UNL     1     -34.271   4.492   4.890  1.00 20.00    -0.171 F 
ENDBRANCH   1   7
TORSDOF 3
