REMARK  0 active torsions:
REMARK  status: ('A' for Active; 'I' for Inactive)
ROOT
HETATM    1  C1  UNL     1     -33.089   7.436   5.450  1.00 20.00     0.006 C 
HETATM    2  C2  UNL     1     -32.932   6.852   4.031  1.00 20.00     0.009 C 
HETATM    3  C3  UNL     1     -33.390   4.546   4.922  1.00 20.00     0.014 C 
HETATM    4  C4  UNL     1     -35.253   5.892   4.166  1.00 20.00     0.014 C 
HETATM    5  C5  UNL     1     -34.020   6.631   6.313  1.00 20.00    -0.006 A 
HETATM    6  C6  UNL     1     -34.056   5.137   6.135  1.00 20.00    -0.005 A 
HETATM    7  C7  UNL     1     -35.207   5.968   5.667  1.00 20.00    -0.005 A 
HETATM    8  C8  UNL     1     -33.774   5.568   3.817  1.00 20.00    -0.043 C 
HETATM    9  C9  UNL     1     -33.605   5.010   2.412  1.00 20.00     0.015 C 
ENDROOT
TORSDOF 0
