REMARK  0 active torsions:
REMARK  status: ('A' for Active; 'I' for Inactive)
ROOT
HETATM    1  C1  UNL     1     -33.942   6.416   5.428  1.00 20.00     0.132 C 
HETATM    2  C2  UNL     1     -34.188   7.895   5.320  1.00 20.00     0.079 C 
HETATM    3  C3  UNL     1     -33.869   8.163   3.859  1.00 20.00     0.017 C 
HETATM    4  C4  UNL     1     -32.857   6.724   2.012  1.00 20.00     0.011 C 
HETATM    5  C5  UNL     1     -33.964   5.678   2.000  1.00 20.00     0.010 C 
HETATM    6  C6  UNL     1     -33.095   5.875   4.290  1.00 20.00     0.071 C 
HETATM    7  C7  UNL     1     -32.766   7.154   3.479  1.00 20.00    -0.033 C 
HETATM    8  C8  UNL     1     -33.771   4.881   3.307  1.00 20.00    -0.037 C 
HETATM    9  C9  UNL     1     -31.380   7.715   3.809  1.00 20.00     0.016 C 
HETATM   10  C10 UNL     1     -35.112   4.308   3.780  1.00 20.00     0.015 C 
HETATM   11  C11 UNL     1     -32.811   3.700   3.054  1.00 20.00     0.015 C 
HETATM   12  O12 UNL     1     -34.340   5.737   6.367  1.00 20.00    -0.298 OA
ENDROOT
TORSDOF 0
