REMARK  0 active torsions:
REMARK  status: ('A' for Active; 'I' for Inactive)
ROOT
HETATM    1  C1  UNL     1     -34.615   4.938   5.622  1.00 20.00     0.147 A 
HETATM    2  C2  UNL     1     -34.116   7.015   5.665  1.00 20.00     0.214 A 
HETATM    3  C3  UNL     1     -34.048   5.205   4.399  1.00 20.00     0.057 A 
HETATM    4  C4  UNL     1     -33.744   4.482   3.216  1.00 20.00     0.033 A 
HETATM    5  C5  UNL     1     -33.162   5.122   2.182  1.00 20.00     0.023 A 
HETATM    6  C6  UNL     1     -33.126   7.225   3.373  1.00 20.00     0.117 A 
HETATM    7  C7  UNL     1     -32.836   6.545   2.249  1.00 20.00     0.027 A 
HETATM    8  N8  UNL     1     -34.654   6.068   6.402  1.00 20.00    -0.253 NA
HETATM    9  N9  UNL     1     -33.727   6.553   4.433  1.00 20.00    -0.314 N 
HETATM   10 BR10 UNL     1     -32.033   7.341   0.770  1.00 20.00    -0.050 Br
ENDROOT
TORSDOF 0
