REMARK  1 active torsions:
REMARK  status: ('A' for Active; 'I' for Inactive)
REMARK    1  A    between atoms: C2_2  and  C4_4 
ROOT
HETATM    1  C1  UNL     1     -32.892   6.219   3.032  1.00 20.00    -0.034 C 
HETATM    2  C2  UNL     1     -32.571   7.380   2.443  1.00 20.00    -0.016 C 
HETATM    3  C3  UNL     1     -33.593   5.100   2.338  1.00 20.00     0.036 C 
ENDROOT
BRANCH   2   4
HETATM    4  C4  UNL     1     -32.878   7.696   1.016  1.00 20.00     0.141 C 
HETATM    5 CL5  UNL     1     -33.124   9.444   0.821  1.00 20.00    -0.126 Cl
ENDBRANCH   2   4
TORSDOF 1
