REMARK  1 active torsions:
REMARK  status: ('A' for Active; 'I' for Inactive)
REMARK    1  A    between atoms: C1_1  and  C2_2 
ROOT
HETATM    1  C1  UNL     1     -33.483   6.385   2.974  1.00 20.00     0.432 C 
HETATM    2  F3  UNL     1     -32.148   6.603   3.000  1.00 20.00    -0.167 F 
HETATM    3  F4  UNL     1     -34.064   7.515   2.507  1.00 20.00    -0.167 F 
HETATM    4  F5  UNL     1     -33.715   5.411   2.065  1.00 20.00    -0.167 F 
ENDROOT
BRANCH   1   5
HETATM    5  C2  UNL     1     -34.019   6.015   4.344  1.00 20.00     0.267 C 
HETATM    6 CL6  UNL     1     -33.705   7.322   5.511  1.00 20.00    -0.079 Cl
HETATM    7 CL7  UNL     1     -35.767   5.689   4.262  1.00 20.00    -0.079 Cl
HETATM    8 BR8  UNL     1     -33.121   4.397   4.977  1.00 20.00    -0.040 Br
ENDBRANCH   1   5
TORSDOF 1
