REMARK  0 active torsions:
REMARK  status: ('A' for Active; 'I' for Inactive)
ROOT
HETATM    1  C1  UNL     1     -32.984   6.696   3.404  1.00 20.00     0.136 C 
HETATM    2  C2  UNL     1     -33.995   6.867   4.520  1.00 20.00     0.088 C 
HETATM    3  C3  UNL     1     -33.272   5.690   2.329  1.00 20.00     0.152 C 
HETATM    4  C4  UNL     1     -33.802   4.336   4.727  1.00 20.00     0.083 C 
HETATM    5  C5  UNL     1     -34.707   5.564   4.950  1.00 20.00    -0.033 C 
HETATM    6  C6  UNL     1     -36.060   5.411   4.224  1.00 20.00     0.016 C 
HETATM    7  C7  UNL     1     -35.017   5.658   6.461  1.00 20.00     0.016 C 
HETATM    8  O8  UNL     1     -31.991   7.423   3.339  1.00 20.00    -0.297 OA
HETATM    9  S9  UNL     1     -33.295   4.015   3.003  1.00 20.00    -0.161 SA
ENDROOT
TORSDOF 0
