REMARK  1 active torsions:
REMARK  status: ('A' for Active; 'I' for Inactive)
REMARK    1  A    between atoms: C3_3  and  C5_5 
ROOT
HETATM    1  C1  UNL     1     -33.140   6.075   1.429  1.00 20.00     0.144 A 
HETATM    2  C2  UNL     1     -33.071   7.442   1.600  1.00 20.00     0.071 A 
HETATM    3  C3  UNL     1     -33.785   6.179   3.523  1.00 20.00     0.103 A 
HETATM    4  N7  UNL     1     -33.550   5.349   2.531  1.00 20.00    -0.251 NA
HETATM    5  S8  UNL     1     -33.536   7.845   3.201  1.00 20.00    -0.061 SA
HETATM    6 BR9  UNL     1     -32.546   8.693   0.283  1.00 20.00    -0.041 Br
ENDROOT
BRANCH   3   7
HETATM    7  C5  UNL     1     -34.231   5.805   4.842  1.00 20.00    -0.035 C 
HETATM    8  C4  UNL     1     -34.992   4.700   4.957  1.00 20.00     0.021 C 
HETATM    9  C6  UNL     1     -33.894   6.597   6.083  1.00 20.00     0.050 C 
ENDBRANCH   3   7
TORSDOF 1
