REMARK  1 active torsions:
REMARK  status: ('A' for Active; 'I' for Inactive)
REMARK    1  A    between atoms: C3_3  and  C9_9 
ROOT
HETATM    1  C1  UNL     1     -33.090   8.794   2.374  1.00 20.00     0.017 A 
HETATM    2  C2  UNL     1     -33.244   9.484   1.137  1.00 20.00     0.028 A 
HETATM    3  C3  UNL     1     -33.035   7.429   2.202  1.00 20.00    -0.012 A 
HETATM    4  C4  UNL     1     -33.300   8.619   0.066  1.00 20.00     0.051 A 
HETATM    5  S10 UNL     1     -33.169   6.983   0.554  1.00 20.00    -0.087 SA
HETATM    6 BR11 UNL     1     -33.501   9.160  -1.743  1.00 20.00    -0.043 Br
ENDROOT
BRANCH   3   7
HETATM    7  C9  UNL     1     -32.880   6.357   3.250  1.00 20.00     0.026 C 
HETATM    8  C7  UNL     1     -32.848   4.932   2.667  1.00 20.00     0.010 C 
HETATM    9  C5  UNL     1     -33.558   4.075   3.704  1.00 20.00     0.001 C 
HETATM   10  C6  UNL     1     -34.666   4.985   4.202  1.00 20.00     0.001 C 
HETATM   11  C8  UNL     1     -33.992   6.347   4.318  1.00 20.00     0.010 C 
ENDBRANCH   3   7
TORSDOF 1
