REMARK  0 active torsions:
REMARK  status: ('A' for Active; 'I' for Inactive)
ROOT
HETATM    1  C1  UNL     1     -33.781   6.605   4.914  1.00 20.00    -0.037 C 
HETATM    2  C2  UNL     1     -33.874   5.690   3.731  1.00 20.00     0.040 C 
HETATM    3  C3  UNL     1     -32.485   7.015   2.417  1.00 20.00     0.243 C 
HETATM    4  C4  UNL     1     -34.239   6.259   6.124  1.00 20.00    -0.022 C 
HETATM    5  C5  UNL     1     -33.104   7.913   4.645  1.00 20.00     0.049 C 
HETATM    6  C6  UNL     1     -31.967   7.699   3.664  1.00 20.00     0.110 C 
HETATM    7  C7  UNL     1     -34.701   4.427   3.836  1.00 20.00     0.071 C 
HETATM    8  C8  UNL     1     -34.881   4.948   6.428  1.00 20.00     0.036 C 
HETATM    9  N9  UNL     1     -33.279   5.903   2.596  1.00 20.00    -0.219 NA
HETATM   10  O10 UNL     1     -32.136   7.412   1.306  1.00 20.00    -0.271 OA
ENDROOT
TORSDOF 0
