REMARK  0 active torsions:
REMARK  status: ('A' for Active; 'I' for Inactive)
ROOT
HETATM    1  C1  UNL     1     -35.143   5.462   5.508  1.00 20.00     0.034 A 
HETATM    2  C2  UNL     1     -32.581   7.036   3.679  1.00 20.00     0.027 A 
HETATM    3  C3  UNL     1     -34.615   6.530   6.369  1.00 20.00     0.118 A 
HETATM    4  C4  UNL     1     -34.332   4.906   3.174  1.00 20.00     0.124 A 
HETATM    5  C5  UNL     1     -34.365   5.633   4.443  1.00 20.00     0.011 A 
HETATM    6  C6  UNL     1     -33.447   6.708   4.637  1.00 20.00     0.066 A 
HETATM    7  C7  UNL     1     -32.548   6.284   2.371  1.00 20.00     0.178 A 
HETATM    8  N8  UNL     1     -33.645   7.247   5.879  1.00 20.00    -0.261 NA
HETATM    9  N9  UNL     1     -33.520   5.174   2.211  1.00 20.00    -0.297 NA
ENDROOT
TORSDOF 0
