REMARK  1 active torsions:
REMARK  status: ('A' for Active; 'I' for Inactive)
REMARK    1  A    between atoms: C2_2  and  C3_3 
ROOT
HETATM    1  C1  UNL     1     -35.793   5.551   4.161  1.00 20.00     0.080 C 
HETATM    2  C2  UNL     1     -34.300   5.739   4.377  1.00 20.00     0.272 C 
HETATM    3  F4  UNL     1     -33.779   4.550   4.790  1.00 20.00    -0.216 F 
HETATM    4 CL8  UNL     1     -34.025   6.947   5.659  1.00 20.00    -0.073 Cl
ENDROOT
BRANCH   2   5
HETATM    5  C3  UNL     1     -33.583   6.151   3.108  1.00 20.00     0.437 C 
HETATM    6  F5  UNL     1     -34.063   7.320   2.630  1.00 20.00    -0.166 F 
HETATM    7  F6  UNL     1     -32.261   6.319   3.335  1.00 20.00    -0.166 F 
HETATM    8  F7  UNL     1     -33.714   5.222   2.136  1.00 20.00    -0.166 F 
ENDBRANCH   2   5
TORSDOF 1
