REMARK  1 active torsions:
REMARK  status: ('A' for Active; 'I' for Inactive)
REMARK    1  A    between atoms: C4_4  and  C5_5 
ROOT
HETATM    1  C5  UNL     1     -33.859   6.562   3.849  1.00 20.00     0.039 C 
HETATM    2  C6  UNL     1     -33.713   7.178   5.233  1.00 20.00     0.060 C 
HETATM    3  C7  UNL     1     -33.964   6.185   6.352  1.00 20.00     0.008 C 
HETATM    4  C8  UNL     1     -35.175   5.345   6.005  1.00 20.00     0.022 C 
HETATM    5  C9  UNL     1     -34.893   4.578   4.726  1.00 20.00     0.149 C 
HETATM    6  N10 UNL     1     -34.409   5.416   3.633  1.00 20.00    -0.293 NA
ENDROOT
BRANCH   1   7
HETATM    7  C4  UNL     1     -33.363   7.350   2.676  1.00 20.00    -0.005 A 
HETATM    8  C1  UNL     1     -32.350   6.930   1.767  1.00 20.00     0.021 A 
HETATM    9  C2  UNL     1     -32.109   7.871   0.790  1.00 20.00     0.050 A 
HETATM   10  S11 UNL     1     -33.102   9.254   0.971  1.00 20.00    -0.113 SA
HETATM   11  C3  UNL     1     -33.858   8.596   2.359  1.00 20.00     0.063 A 
ENDBRANCH   1   7
TORSDOF 1
