REMARK  1 active torsions:
REMARK  status: ('A' for Active; 'I' for Inactive)
REMARK    1  A    between atoms: C4_4  and  C8_8 
ROOT
HETATM    1  C5  UNL     1     -34.975   4.564   3.984  1.00 20.00     0.033 C 
HETATM    2  C6  UNL     1     -33.801   4.781   3.041  1.00 20.00     0.042 C 
HETATM    3  C7  UNL     1     -34.591   5.352   5.220  1.00 20.00     0.273 C 
HETATM    4  C8  UNL     1     -33.133   6.083   3.523  1.00 20.00     0.256 C 
HETATM    5  C9  UNL     1     -33.247   7.325   5.630  1.00 20.00     0.310 C 
HETATM    6  N10 UNL     1     -33.980   6.547   4.640  1.00 20.00     0.093 N 
ENDROOT
BRANCH   4   7
HETATM    7  C4  UNL     1     -33.003   7.115   2.422  1.00 20.00    -0.018 A 
HETATM    8  C1  UNL     1     -32.296   6.893   1.205  1.00 20.00     0.017 A 
HETATM    9  C2  UNL     1     -32.332   7.994   0.378  1.00 20.00     0.050 A 
HETATM   10  S11 UNL     1     -33.215   9.288   1.069  1.00 20.00    -0.113 SA
HETATM   11  C3  UNL     1     -33.552   8.377   2.479  1.00 20.00     0.058 A 
ENDBRANCH   4   7
TORSDOF 1
