REMARK  0 active torsions:
REMARK  status: ('A' for Active; 'I' for Inactive)
ROOT
HETATM    1  C1  UNL     1     -33.742   6.491   5.067  1.00 20.00    -0.057 C 
HETATM    2  C2  UNL     1     -32.897   6.947   2.764  1.00 20.00    -0.057 C 
HETATM    3  C3  UNL     1     -33.901   6.816   6.359  1.00 20.00     0.016 C 
HETATM    4  C4  UNL     1     -32.726   7.979   1.923  1.00 20.00     0.016 C 
HETATM    5  C5  UNL     1     -32.620   7.073   4.240  1.00 20.00     0.070 C 
HETATM    6  C6  UNL     1     -34.666   5.515   4.374  1.00 20.00     0.306 C 
HETATM    7  C7  UNL     1     -33.444   5.621   2.271  1.00 20.00     0.306 C 
HETATM    8  C8  UNL     1     -33.069   3.758   3.807  1.00 20.00     0.310 C 
HETATM    9  N9  UNL     1     -34.025   4.740   3.300  1.00 20.00     0.091 N 
ENDROOT
TORSDOF 0
