REMARK  1 active torsions:
REMARK  status: ('A' for Active; 'I' for Inactive)
REMARK    1  A    between atoms: C1_1  and  C3_3 
ROOT
HETATM    1  C3  UNL     1     -34.822   5.752   5.064  1.00 20.00     0.408 C 
HETATM    2  F4  UNL     1     -35.467   5.930   6.245  1.00 20.00    -0.167 F 
HETATM    3  F5  UNL     1     -34.317   4.492   5.080  1.00 20.00    -0.167 F 
HETATM    4  F6  UNL     1     -35.768   5.782   4.092  1.00 20.00    -0.167 F 
ENDROOT
BRANCH   1   5
HETATM    5  C1  UNL     1     -33.748   6.764   4.875  1.00 20.00     0.096 C 
HETATM    6  C2  UNL     1     -32.955   6.825   3.800  1.00 20.00     0.060 C 
HETATM    7 BR7  UNL     1     -33.055   5.659   2.361  1.00 20.00    -0.064 Br
ENDBRANCH   1   5
TORSDOF 1
