REMARK  1 active torsions:
REMARK  status: ('A' for Active; 'I' for Inactive)
REMARK    1  A    between atoms: C3_3  and  C5_5 
ROOT
HETATM    1  C1  UNL     1     -33.346   5.121   2.177  1.00 20.00     0.022 A 
HETATM    2  C2  UNL     1     -33.990   4.483   3.276  1.00 20.00     0.028 A 
HETATM    3  C3  UNL     1     -33.129   6.461   2.411  1.00 20.00     0.048 A 
HETATM    4  C4  UNL     1     -34.242   5.360   4.308  1.00 20.00     0.052 A 
HETATM    5  S8  UNL     1     -33.702   6.945   3.950  1.00 20.00    -0.082 SA
HETATM    6 BR9  UNL     1     -35.087   4.884   5.941  1.00 20.00    -0.043 Br
ENDROOT
BRANCH   3   7
HETATM    7  C5  UNL     1     -32.493   7.459   1.525  1.00 20.00     0.393 C 
HETATM    8  F6  UNL     1     -31.402   8.024   2.115  1.00 20.00    -0.208 F 
HETATM    9  F7  UNL     1     -33.343   8.488   1.247  1.00 20.00    -0.208 F 
ENDBRANCH   3   7
TORSDOF 1
