REMARK  0 active torsions:
REMARK  status: ('A' for Active; 'I' for Inactive)
ROOT
HETATM    1  C1  UNL     1     -33.925   6.820   5.874  1.00 20.00     0.011 C 
HETATM    2  C2  UNL     1     -32.965   7.125   4.726  1.00 20.00     0.017 C 
HETATM    3  C3  UNL     1     -34.449   5.390   5.851  1.00 20.00     0.074 C 
HETATM    4  C4  UNL     1     -34.104   5.504   3.118  1.00 20.00     0.089 C 
HETATM    5  C5  UNL     1     -33.614   6.925   3.359  1.00 20.00     0.067 C 
HETATM    6  S6  UNL     1     -35.372   5.031   4.330  1.00 20.00    -0.168 SA
HETATM    7 BR7  UNL     1     -32.290   7.362   1.975  1.00 20.00    -0.090 Br
ENDROOT
TORSDOF 0
