REMARK  0 active torsions:
REMARK  status: ('A' for Active; 'I' for Inactive)
ROOT
HETATM    1  C1  UNL     1     -32.637   5.794   2.147  1.00 20.00    -0.002 C 
HETATM    2  C2  UNL     1     -32.510   6.779   3.199  1.00 20.00     0.009 C 
HETATM    3  C3  UNL     1     -33.743   5.053   2.337  1.00 20.00    -0.013 C 
HETATM    4  C4  UNL     1     -34.880   4.677   4.611  1.00 20.00     0.006 C 
HETATM    5  C5  UNL     1     -34.751   5.084   5.890  1.00 20.00     0.113 C 
HETATM    6  C6  UNL     1     -33.671   7.040   5.414  1.00 20.00     0.124 C 
HETATM    7  C7  UNL     1     -33.565   6.639   4.008  1.00 20.00    -0.029 C 
HETATM    8  C8  UNL     1     -34.522   5.609   3.496  1.00 20.00     0.066 C 
HETATM    9  N9  UNL     1     -34.255   6.305   6.314  1.00 20.00    -0.273 NA
ENDROOT
TORSDOF 0
