REMARK  0 active torsions:
REMARK  status: ('A' for Active; 'I' for Inactive)
ROOT
HETATM    1  C1  UNL     1     -34.143   5.290   3.791  1.00 20.00     0.014 C 
HETATM    2  C2  UNL     1     -33.677   4.956   2.407  1.00 20.00     0.085 C 
HETATM    3  C3  UNL     1     -34.151   6.402   5.793  1.00 20.00     0.034 C 
HETATM    4  C4  UNL     1     -35.122   5.232   5.765  1.00 20.00     0.149 C 
HETATM    5  C5  UNL     1     -32.296   5.568   2.165  1.00 20.00     0.277 C 
HETATM    6  C6  UNL     1     -32.524   7.170   3.973  1.00 20.00     0.282 C 
HETATM    7  C7  UNL     1     -33.924   6.674   4.319  1.00 20.00     0.063 C 
HETATM    8  C8  UNL     1     -32.907   7.876   1.670  1.00 20.00     0.309 C 
HETATM    9  N9  UNL     1     -34.796   4.461   4.546  1.00 20.00    -0.298 NA
HETATM   10  N10 UNL     1     -32.167   6.982   2.557  1.00 20.00     0.085 N 
ENDROOT
TORSDOF 0
