REMARK  1 active torsions:
REMARK  status: ('A' for Active; 'I' for Inactive)
REMARK    1  A    between atoms: C3_3  and  C4_4 
ROOT
HETATM    1  C1  UNL     1     -33.807   5.631   3.394  1.00 20.00     0.067 A 
HETATM    2  C2  UNL     1     -33.717   6.833   4.048  1.00 20.00     0.080 A 
HETATM    3  C3  UNL     1     -32.989   7.027   2.063  1.00 20.00     0.208 A 
HETATM    4  C5  UNL     1     -34.359   4.411   4.021  1.00 20.00     0.062 C 
HETATM    5  C6  UNL     1     -34.086   7.143   5.439  1.00 20.00     0.067 C 
HETATM    6  C7  UNL     1     -34.426   4.588   5.558  1.00 20.00     0.006 C 
HETATM    7  C8  UNL     1     -34.951   5.982   5.983  1.00 20.00     0.007 C 
HETATM    8  N9  UNL     1     -33.344   5.758   2.116  1.00 20.00    -0.224 NA
HETATM    9  O11 UNL     1     -33.185   7.753   3.207  1.00 20.00    -0.292 OA
ENDROOT
BRANCH   3  10
HETATM   10  C4  UNL     1     -32.433   7.673   0.925  1.00 20.00     0.316 C 
HETATM   11  O10 UNL     1     -32.102   8.880   0.888  1.00 20.00    -0.298 OA
ENDBRANCH   3  10
TORSDOF 1
