REMARK  0 active torsions:
REMARK  status: ('A' for Active; 'I' for Inactive)
ROOT
HETATM    1  C1  UNL     1     -34.563   4.721   4.188  1.00 20.00     0.223 A 
HETATM    2  C2  UNL     1     -35.752   6.757   3.904  1.00 20.00     0.128 A 
HETATM    3  C3  UNL     1     -33.701   5.590   3.347  1.00 20.00     0.092 A 
HETATM    4  C4  UNL     1     -34.448   6.894   3.180  1.00 20.00     0.026 A 
HETATM    5  C5  UNL     1     -33.086   6.878   3.853  1.00 20.00    -0.029 A 
HETATM    6  C6  UNL     1     -32.968   7.125   5.335  1.00 20.00     0.016 C 
HETATM    7  C7  UNL     1     -31.929   7.440   3.064  1.00 20.00     0.016 C 
HETATM    8  N8  UNL     1     -35.726   5.419   4.459  1.00 20.00    -0.360 N 
HETATM    9  O9  UNL     1     -34.245   3.596   4.537  1.00 20.00    -0.273 OA
HETATM   10  H20 UNL     1     -36.493   5.029   4.998  1.00 20.00     0.162 HD
ENDROOT
TORSDOF 0
