REMARK  3 active torsions:
REMARK  status: ('A' for Active; 'I' for Inactive)
REMARK    1  A    between atoms: C5_5  and  C8_8 
REMARK    2  A    between atoms: C7_7  and  N9_9 
REMARK    3  A    between atoms: C8_8  and  N9_9 
ROOT
HETATM    1  C1  UNL     1     -33.105   9.194   0.622  1.00 20.00     0.013 C 
HETATM    2  C2  UNL     1     -32.684   8.174   1.096  1.00 20.00    -0.087 C 
HETATM    3  C7  UNL     1     -32.165   6.931   1.673  1.00 20.00     0.362 C 
ENDROOT
BRANCH   3   4
HETATM    4  N9  UNL     1     -33.259   6.097   2.171  1.00 20.00     0.094 N 
HETATM    5  H22 UNL     1     -32.918   5.132   2.250  1.00 20.00     0.317 HD
BRANCH   4   6
HETATM    6  C8  UNL     1     -33.743   6.559   3.442  1.00 20.00     0.275 C 
BRANCH   6   7
HETATM    7  C5  UNL     1     -34.863   5.709   3.934  1.00 20.00     0.018 A 
HETATM    8  C3  UNL     1     -34.579   4.382   4.589  1.00 20.00     0.011 A 
HETATM    9  C4  UNL     1     -35.147   5.513   5.405  1.00 20.00    -0.013 A 
HETATM   10  C6  UNL     1     -34.327   6.156   6.471  1.00 20.00     0.010 C 
ENDBRANCH   6   7
ENDBRANCH   4   6
ENDBRANCH   3   4
TORSDOF 3
