REMARK  3 active torsions:
REMARK  status: ('A' for Active; 'I' for Inactive)
REMARK    1  A    between atoms: C5_5  and  C8_8 
REMARK    2  A    between atoms: C7_7  and  N9_9 
REMARK    3  A    between atoms: C8_8  and  N9_9 
ROOT
HETATM    1  C1  UNL     1     -33.019   9.555   0.662  1.00 20.00     0.013 C 
HETATM    2  C2  UNL     1     -32.847   8.502   1.213  1.00 20.00    -0.087 C 
HETATM    3  C7  UNL     1     -32.633   7.219   1.886  1.00 20.00     0.362 C 
ENDROOT
BRANCH   3   4
HETATM    4  N9  UNL     1     -33.816   6.365   1.760  1.00 20.00     0.094 N 
HETATM    5  H22 UNL     1     -33.990   6.202   0.762  1.00 20.00     0.317 HD
BRANCH   4   6
HETATM    6  C8  UNL     1     -33.642   5.114   2.445  1.00 20.00     0.275 C 
BRANCH   6   7
HETATM    7  C5  UNL     1     -33.865   5.266   3.910  1.00 20.00     0.018 A 
HETATM    8  C3  UNL     1     -35.266   5.311   4.461  1.00 20.00     0.011 A 
HETATM    9  C4  UNL     1     -34.417   6.555   4.460  1.00 20.00    -0.013 A 
HETATM   10  C6  UNL     1     -33.894   7.105   5.742  1.00 20.00     0.010 C 
ENDBRANCH   6   7
ENDBRANCH   4   6
ENDBRANCH   3   4
TORSDOF 3
