REMARK  1 active torsions:
REMARK  status: ('A' for Active; 'I' for Inactive)
REMARK    1  A    between atoms: C2_2  and  C6_6 
ROOT
HETATM    1  C1  UNL     1     -32.985   4.492   2.447  1.00 20.00     0.119 A 
HETATM    2  C2  UNL     1     -33.984   5.708   4.012  1.00 20.00     0.043 A 
HETATM    3  C3  UNL     1     -33.882   4.286   3.614  1.00 20.00     0.105 A 
HETATM    4  N7  UNL     1     -32.669   5.731   2.250  1.00 20.00    -0.167 NA
HETATM    5  N8  UNL     1     -33.310   6.519   3.259  1.00 20.00    -0.159 NA
ENDROOT
BRANCH   2   6
HETATM    6  C6  UNL     1     -34.776   6.156   5.165  1.00 20.00     0.035 A 
HETATM    7  C4  UNL     1     -34.510   5.557   6.519  1.00 20.00     0.011 A 
HETATM    8  C5  UNL     1     -34.113   6.976   6.238  1.00 20.00     0.011 A 
ENDBRANCH   2   6
TORSDOF 1
