REMARK  0 active torsions:
REMARK  status: ('A' for Active; 'I' for Inactive)
ROOT
HETATM    1  C1  UNL     1     -33.879   6.726   4.618  1.00 20.00     0.075 C 
HETATM    2  C2  UNL     1     -34.051   7.003   6.110  1.00 20.00     0.273 C 
HETATM    3  C3  UNL     1     -34.604   4.757   5.768  1.00 20.00     0.312 C 
HETATM    4  C4  UNL     1     -34.585   5.397   4.393  1.00 20.00     0.127 C 
HETATM    5  C5  UNL     1     -33.956   4.532   3.318  1.00 20.00     0.053 C 
HETATM    6  N6  UNL     1     -34.867   5.908   6.632  1.00 20.00     0.086 N 
HETATM    7  F7  UNL     1     -35.874   5.653   4.024  1.00 20.00    -0.241 F 
HETATM    8  H17 UNL     1     -34.625   5.702   7.600  1.00 20.00     0.316 HD
ENDROOT
TORSDOF 0
