REMARK  0 active torsions:
REMARK  status: ('A' for Active; 'I' for Inactive)
ROOT
HETATM    1  C1  UNL     1     -33.148   6.349   0.958  1.00 20.00     0.050 A 
HETATM    2  C2  UNL     1     -32.693   8.112   2.579  1.00 20.00     0.062 A 
HETATM    3  C3  UNL     1     -33.423   5.978   3.313  1.00 20.00     0.034 A 
HETATM    4  C4  UNL     1     -33.486   5.509   2.006  1.00 20.00    -0.040 A 
HETATM    5  C5  UNL     1     -32.750   7.658   1.250  1.00 20.00     0.118 A 
HETATM    6  C6  UNL     1     -33.033   7.265   3.634  1.00 20.00     0.028 A 
HETATM    7  C7  UNL     1     -33.826   4.900   4.202  1.00 20.00     0.161 A 
HETATM    8  C8  UNL     1     -33.936   4.086   1.922  1.00 20.00     0.047 A 
HETATM    9  C9  UNL     1     -34.165   3.675   3.387  1.00 20.00     0.088 A 
HETATM   10  O10 UNL     1     -33.887   4.962   5.417  1.00 20.00    -0.292 OA
HETATM   11  F11 UNL     1     -32.417   8.488   0.253  1.00 20.00    -0.206 F 
HETATM   12 BR12 UNL     1     -32.934   7.936   5.397  1.00 20.00    -0.050 Br
ENDROOT
TORSDOF 0
