REMARK  1 active torsions:
REMARK  status: ('A' for Active; 'I' for Inactive)
REMARK    1  A    between atoms: C9_9  and  S11_11 
ROOT
HETATM    1  C1  UNL     1     -33.805   8.028   4.157  1.00 20.00     0.015 A 
HETATM    2  C2  UNL     1     -34.608   6.205   5.583  1.00 20.00     0.016 A 
HETATM    3  C3  UNL     1     -33.339   8.470   2.922  1.00 20.00     0.025 A 
HETATM    4  C4  UNL     1     -34.928   4.864   5.741  1.00 20.00     0.039 A 
HETATM    5  C5  UNL     1     -33.536   6.221   2.068  1.00 20.00     0.056 A 
HETATM    6  C6  UNL     1     -34.137   6.676   4.350  1.00 20.00    -0.007 A 
HETATM    7  C7  UNL     1     -34.003   5.752   3.292  1.00 20.00     0.070 A 
HETATM    8  C8  UNL     1     -33.205   7.565   1.876  1.00 20.00     0.036 A 
HETATM    9  C9  UNL     1     -34.764   4.036   4.649  1.00 20.00     0.091 A 
HETATM   10  N10 UNL     1     -34.313   4.451   3.443  1.00 20.00    -0.242 NA
HETATM   11 CL12 UNL     1     -32.632   8.100   0.344  1.00 20.00    -0.084 Cl
ENDROOT
BRANCH   9  12
HETATM   12  S11 UNL     1     -35.159   2.302   4.796  1.00 20.00    -0.123 SA
HETATM   13  H18 UNL     1     -35.544   2.325   6.081  1.00 20.00     0.108 HD
ENDBRANCH   9  12
TORSDOF 1
