REMARK  0 active torsions:
REMARK  status: ('A' for Active; 'I' for Inactive)
ROOT
HETATM    1  C1  UNL     1     -33.141   5.191   2.928  1.00 20.00     0.136 C 
HETATM    2  C2  UNL     1     -32.644   6.579   2.535  1.00 20.00     0.084 C 
HETATM    3  C3  UNL     1     -34.775   5.270   6.330  1.00 20.00     0.002 C 
HETATM    4  C4  UNL     1     -34.430   6.724   5.942  1.00 20.00     0.006 C 
HETATM    5  C5  UNL     1     -34.982   7.407   2.991  1.00 20.00     0.006 C 
HETATM    6  C6  UNL     1     -34.457   4.380   5.106  1.00 20.00     0.018 C 
HETATM    7  C7  UNL     1     -35.429   5.965   3.293  1.00 20.00     0.018 C 
HETATM    8  C8  UNL     1     -33.527   7.439   3.493  1.00 20.00    -0.002 C 
HETATM    9  C9  UNL     1     -33.544   6.545   4.727  1.00 20.00     0.006 C 
HETATM   10  C10 UNL     1     -34.196   5.361   3.998  1.00 20.00     0.024 C 
HETATM   11  O11 UNL     1     -32.770   4.135   2.444  1.00 20.00    -0.297 OA
ENDROOT
TORSDOF 0
