REMARK  0 active torsions:
REMARK  status: ('A' for Active; 'I' for Inactive)
ROOT
HETATM    1  C1  UNL     1     -35.865   5.718   4.273  1.00 20.00     0.136 C 
HETATM    2  C2  UNL     1     -35.425   7.144   4.505  1.00 20.00     0.084 C 
HETATM    3  C3  UNL     1     -34.009   4.215   2.265  1.00 20.00     0.002 C 
HETATM    4  C4  UNL     1     -33.553   5.656   2.576  1.00 20.00     0.006 C 
HETATM    5  C5  UNL     1     -34.021   6.152   6.345  1.00 20.00     0.006 C 
HETATM    6  C6  UNL     1     -34.570   3.611   3.572  1.00 20.00     0.018 C 
HETATM    7  C7  UNL     1     -34.495   4.707   6.013  1.00 20.00     0.018 C 
HETATM    8  C8  UNL     1     -33.978   6.862   4.956  1.00 20.00    -0.002 C 
HETATM    9  C9  UNL     1     -33.508   5.695   4.093  1.00 20.00     0.006 C 
HETATM   10  C10 UNL     1     -34.671   4.789   4.502  1.00 20.00     0.024 C 
HETATM   11  O11 UNL     1     -36.997   5.371   3.977  1.00 20.00    -0.297 OA
ENDROOT
TORSDOF 0
