REMARK  2 active torsions:
REMARK  status: ('A' for Active; 'I' for Inactive)
REMARK    1  A    between atoms: C1_1  and  C8_8 
REMARK    2  A    between atoms: C8_8  and  O9_9 
ROOT
HETATM    1  C1  UNL     1     -34.840   6.546   3.763  1.00 20.00     0.026 A 
HETATM    2  C2  UNL     1     -33.549   6.489   4.568  1.00 20.00    -0.034 A 
HETATM    3  C3  UNL     1     -33.583   5.989   3.107  1.00 20.00    -0.034 A 
HETATM    4  C4  UNL     1     -32.877   7.809   4.883  1.00 20.00     0.016 C 
HETATM    5  C5  UNL     1     -33.392   5.500   5.701  1.00 20.00     0.016 C 
HETATM    6  C6  UNL     1     -33.460   4.512   2.810  1.00 20.00     0.016 C 
HETATM    7  C7  UNL     1     -32.943   6.831   2.023  1.00 20.00     0.016 C 
ENDROOT
BRANCH   1   8
HETATM    8  C8  UNL     1     -36.037   5.715   4.075  1.00 20.00     0.170 C 
BRANCH   8   9
HETATM    9  O9  UNL     1     -35.631   4.396   4.440  1.00 20.00    -0.400 OA
HETATM   10  H25 UNL     1     -36.443   3.902   4.631  1.00 20.00     0.209 HD
ENDBRANCH   8   9
ENDBRANCH   1   8
TORSDOF 2
