REMARK  1 active torsions:
REMARK  status: ('A' for Active; 'I' for Inactive)
REMARK    1  A    between atoms: C3_3  and  C5_5 
ROOT
HETATM    1  C1  UNL     1     -32.988   7.944   1.416  1.00 20.00     0.221 A 
HETATM    2  C4  UNL     1     -34.111   6.916   1.643  1.00 20.00     0.138 A 
HETATM    3  C5  UNL     1     -33.194   6.337   2.758  1.00 20.00     0.060 A 
HETATM    4  C7  UNL     1     -32.586   4.973   2.484  1.00 20.00     0.044 C 
HETATM    5  N8  UNL     1     -32.253   7.406   2.426  1.00 20.00    -0.348 N 
HETATM    6  O9  UNL     1     -32.787   8.871   0.665  1.00 20.00    -0.273 OA
HETATM    7  H20 UNL     1     -31.340   7.663   2.776  1.00 20.00     0.163 HD
ENDROOT
BRANCH   3   8
HETATM    8  C3  UNL     1     -33.714   6.483   4.135  1.00 20.00    -0.065 C 
HETATM    9  C2  UNL     1     -33.046   7.165   5.077  1.00 20.00     0.016 C 
HETATM   10  C6  UNL     1     -35.033   5.826   4.418  1.00 20.00     0.045 C 
ENDBRANCH   3   8
TORSDOF 1
