REMARK  0 active torsions:
REMARK  status: ('A' for Active; 'I' for Inactive)
ROOT
HETATM    1  C1  UNL     1     -33.874   5.553   3.252  1.00 20.00     0.272 A 
HETATM    2  C2  UNL     1     -35.876   5.385   4.287  1.00 20.00     0.272 A 
HETATM    3  C3  UNL     1     -33.918   6.708   4.171  1.00 20.00     0.109 A 
HETATM    4  C4  UNL     1     -35.257   6.595   4.863  1.00 20.00     0.109 A 
HETATM    5  C5  UNL     1     -33.982   6.562   5.675  1.00 20.00    -0.021 A 
HETATM    6  C6  UNL     1     -33.538   5.274   6.323  1.00 20.00     0.016 C 
HETATM    7  C7  UNL     1     -33.659   7.785   6.497  1.00 20.00     0.016 C 
HETATM    8  O8  UNL     1     -32.932   5.299   2.519  1.00 20.00    -0.264 OA
HETATM    9  O9  UNL     1     -36.973   4.959   4.608  1.00 20.00    -0.264 OA
HETATM   10  O10 UNL     1     -35.040   4.837   3.348  1.00 20.00    -0.244 OA
ENDROOT
TORSDOF 0
