REMARK  0 active torsions:
REMARK  status: ('A' for Active; 'I' for Inactive)
ROOT
HETATM    1  C1  UNL     1     -34.583   4.505   5.140  1.00 20.00    -0.019 C 
HETATM    2  C2  UNL     1     -34.231   5.130   6.266  1.00 20.00     0.080 C 
HETATM    3  C3  UNL     1     -34.980   5.219   3.891  1.00 20.00     0.037 C 
HETATM    4 CL4  UNL     1     -34.194   6.837   6.414  1.00 20.00    -0.097 Cl
ENDROOT
TORSDOF 0
