REMARK  1 active torsions:
REMARK  status: ('A' for Active; 'I' for Inactive)
REMARK    1  A    between atoms: C7_7  and  N9_9 
ROOT
HETATM    1  C1  UNL     1     -34.446   6.369   5.466  1.00 20.00     0.031 C 
HETATM    2  C4  UNL     1     -34.383   4.845   5.482  1.00 20.00     0.019 C 
HETATM    3  C5  UNL     1     -33.528   6.953   4.391  1.00 20.00     0.273 C 
HETATM    4  C6  UNL     1     -33.708   4.938   3.049  1.00 20.00     0.288 C 
HETATM    5  C8  UNL     1     -34.638   4.302   4.082  1.00 20.00     0.086 C 
HETATM    6  N9  UNL     1     -33.839   6.404   3.063  1.00 20.00     0.094 N 
HETATM    7 BR10 UNL     1     -34.376   2.365   4.083  1.00 20.00    -0.089 Br
ENDROOT
BRANCH   6   8
HETATM    8  C7  UNL     1     -33.006   7.034   2.006  1.00 20.00     0.223 A 
HETATM    9  C2  UNL     1     -33.071   8.517   1.769  1.00 20.00     0.038 A 
HETATM   10  C3  UNL     1     -31.840   7.909   2.374  1.00 20.00     0.038 A 
ENDBRANCH   6   8
TORSDOF 1
