REMARK  1 active torsions:
REMARK  status: ('A' for Active; 'I' for Inactive)
REMARK    1  A    between atoms: C5_5  and  O7_7 
ROOT
HETATM    1  C1  UNL     1     -34.022   5.472   6.860  1.00 20.00     0.015 C 
HETATM    2  C2  UNL     1     -34.343   5.474   5.703  1.00 20.00    -0.075 C 
HETATM    3  C3  UNL     1     -33.912   6.411   3.406  1.00 20.00     0.221 A 
HETATM    4  C4  UNL     1     -34.114   4.355   3.459  1.00 20.00     0.221 A 
HETATM    5  C5  UNL     1     -34.729   5.476   4.310  1.00 20.00     0.162 A 
HETATM    6  O6  UNL     1     -33.438   5.305   2.605  1.00 20.00    -0.383 OA
ENDROOT
BRANCH   5   7
HETATM    7  O7  UNL     1     -36.161   5.615   4.229  1.00 20.00    -0.373 OA
HETATM    8  H13 UNL     1     -36.524   4.854   4.699  1.00 20.00     0.212 HD
ENDBRANCH   5   7
TORSDOF 1
