REMARK  3 active torsions:
REMARK  status: ('A' for Active; 'I' for Inactive)
REMARK    1  A    between atoms: C3_3  and  C8_8 
REMARK    2  A    between atoms: C3_3  and  O10_10 
REMARK    3  A    between atoms: C6_6  and  C8_8 
ROOT
HETATM    1  C1  UNL     1     -31.313   7.827   2.852  1.00 20.00    -0.026 C 
HETATM    2  C2  UNL     1     -31.961   7.572   3.993  1.00 20.00    -0.025 C 
HETATM    3  C4  UNL     1     -33.031   6.298   2.315  1.00 20.00     0.017 C 
HETATM    4  C5  UNL     1     -32.020   7.254   1.662  1.00 20.00     0.004 C 
HETATM    5  C6  UNL     1     -33.218   6.795   3.757  1.00 20.00     0.018 C 
HETATM    6  C7  UNL     1     -32.690   8.339   0.828  1.00 20.00     0.014 C 
ENDROOT
BRANCH   5   7
HETATM    7  C8  UNL     1     -33.410   5.651   4.742  1.00 20.00     0.118 C 
BRANCH   7   8
HETATM    8  C3  UNL     1     -34.686   4.893   4.483  1.00 20.00     0.140 C 
HETATM    9  O9  UNL     1     -34.976   4.296   3.457  1.00 20.00    -0.650 OA
BRANCH   8  10
HETATM   10  O10 UNL     1     -35.495   4.963   5.571  1.00 20.00    -0.776 OA
HETATM   11  H22 UNL     1     -36.336   4.478   5.433  1.00 20.00     0.167 HD
ENDBRANCH   8  10
ENDBRANCH   7   8
ENDBRANCH   5   7
TORSDOF 3
