REMARK  2 active torsions:
REMARK  status: ('A' for Active; 'I' for Inactive)
REMARK    1  A    between atoms: C3_3  and  C4_4 
REMARK    2  A    between atoms: C3_3  and  O6_6 
ROOT
HETATM    1  C1  UNL     1     -34.011   4.692   3.175  1.00 20.00     0.081 C 
HETATM    2  C4  UNL     1     -34.824   4.156   4.273  1.00 20.00     0.212 C 
HETATM    3  N5  UNL     1     -33.372   5.114   2.303  1.00 20.00    -0.196 NA
HETATM    4 CL7  UNL     1     -34.820   2.375   4.153  1.00 20.00    -0.107 Cl
ENDROOT
BRANCH   2   5
HETATM    5  C3  UNL     1     -34.316   4.606   5.640  1.00 20.00     0.202 C 
BRANCH   5   6
HETATM    6  O6  UNL     1     -34.745   5.931   5.934  1.00 20.00    -0.394 OA
HETATM    7  C2  UNL     1     -33.956   6.896   5.253  1.00 20.00     0.201 C 
ENDBRANCH   5   6
ENDBRANCH   2   5
TORSDOF 2
