REMARK  1 active torsions:
REMARK  status: ('A' for Active; 'I' for Inactive)
REMARK    1  A    between atoms: C5_5  and  C6_6 
ROOT
HETATM    1  C1  UNL     1     -34.285   6.159   5.470  1.00 20.00     0.100 C 
HETATM    2  C2  UNL     1     -33.421   7.085   3.280  1.00 20.00     0.038 A 
HETATM    3  C3  UNL     1     -33.760   4.795   3.485  1.00 20.00     0.072 A 
HETATM    4  C4  UNL     1     -33.838   6.014   4.122  1.00 20.00     0.052 A 
HETATM    5  C5  UNL     1     -33.041   6.644   2.031  1.00 20.00    -0.002 A 
HETATM    6  N7  UNL     1     -34.649   6.277   6.566  1.00 20.00    -0.191 NA
HETATM    7  S8  UNL     1     -33.188   4.945   1.878  1.00 20.00    -0.104 SA
ENDROOT
BRANCH   5   8
HETATM    8  C6  UNL     1     -32.552   7.439   0.884  1.00 20.00     0.160 C 
HETATM    9 CL9  UNL     1     -32.883   9.175   1.119  1.00 20.00    -0.125 Cl
ENDBRANCH   5   8
TORSDOF 1
