REMARK  0 active torsions:
REMARK  status: ('A' for Active; 'I' for Inactive)
ROOT
HETATM    1  C1  UNL     1     -35.908   5.855   3.652  1.00 20.00     0.069 C 
HETATM    2  C2  UNL     1     -33.448   4.498   2.417  1.00 20.00     0.002 C 
HETATM    3  C3  UNL     1     -33.271   5.980   2.088  1.00 20.00     0.002 C 
HETATM    4  C4  UNL     1     -33.887   4.436   3.880  1.00 20.00     0.024 C 
HETATM    5  C5  UNL     1     -33.610   6.745   3.367  1.00 20.00     0.024 C 
HETATM    6  C6  UNL     1     -34.521   5.803   4.164  1.00 20.00     0.045 C 
HETATM    7  C7  UNL     1     -34.521   6.135   5.655  1.00 20.00     0.031 C 
HETATM    8  N8  UNL     1     -36.995   5.897   3.251  1.00 20.00    -0.196 NA
ENDROOT
TORSDOF 0
