REMARK  2 active torsions:
REMARK  status: ('A' for Active; 'I' for Inactive)
REMARK    1  A    between atoms: C6_6  and  C7_7 
REMARK    2  A    between atoms: C7_7  and  C8_8 
ROOT
HETATM    1  C1  UNL     1     -32.657   7.757   1.608  1.00 20.00     0.059 C 
HETATM    2  C6  UNL     1     -33.078   7.339   2.957  1.00 20.00     0.129 C 
HETATM    3  N9  UNL     1     -32.323   8.088   0.548  1.00 20.00    -0.197 NA
ENDROOT
BRANCH   2   4
HETATM    4  C7  UNL     1     -33.654   5.902   2.970  1.00 20.00     0.002 C 
HETATM    5  C2  UNL     1     -32.621   4.934   2.359  1.00 20.00     0.011 C 
BRANCH   4   6
HETATM    6  C8  UNL     1     -34.157   5.453   4.396  1.00 20.00    -0.047 C 
HETATM    7  C3  UNL     1     -35.665   5.139   4.413  1.00 20.00     0.015 C 
HETATM    8  C4  UNL     1     -33.883   6.565   5.434  1.00 20.00     0.015 C 
HETATM    9  C5  UNL     1     -33.397   4.196   4.874  1.00 20.00     0.015 C 
ENDBRANCH   4   6
ENDBRANCH   2   4
TORSDOF 2
