REMARK  2 active torsions:
REMARK  status: ('A' for Active; 'I' for Inactive)
REMARK    1  A    between atoms: C1_1  and  C2_2 
REMARK    2  A    between atoms: C3_3  and  C7_7 
ROOT
HETATM    1  C1  UNL     1     -33.190   7.161   2.836  1.00 20.00     0.061 C 
HETATM    2  C3  UNL     1     -33.446   5.964   3.393  1.00 20.00     0.022 C 
HETATM    3 CL9  UNL     1     -32.772   4.504   2.698  1.00 20.00    -0.088 Cl
ENDROOT
BRANCH   2   4
HETATM    4  C7  UNL     1     -34.316   5.738   4.646  1.00 20.00    -0.013 C 
HETATM    5  C4  UNL     1     -34.381   4.234   4.990  1.00 20.00     0.020 C 
HETATM    6  C5  UNL     1     -33.775   6.463   5.903  1.00 20.00     0.020 C 
HETATM    7  C6  UNL     1     -35.747   6.267   4.406  1.00 20.00     0.020 C 
ENDBRANCH   2   4
BRANCH   1   8
HETATM    8  C2  UNL     1     -32.356   7.390   1.632  1.00 20.00     0.260 C 
HETATM    9  O8  UNL     1     -32.170   8.516   1.183  1.00 20.00    -0.302 OA
ENDBRANCH   1   8
TORSDOF 2
