REMARK  2 active torsions:
REMARK  status: ('A' for Active; 'I' for Inactive)
REMARK    1  A    between atoms: C3_3  and  C4_4 
REMARK    2  A    between atoms: C5_5  and  C6_6 
ROOT
HETATM    1  C1  UNL     1     -34.304   6.358   5.553  1.00 20.00     0.087 C 
HETATM    2  C2  UNL     1     -33.975   6.824   4.252  1.00 20.00     0.093 C 
HETATM    3  C3  UNL     1     -33.472   6.003   3.320  1.00 20.00     0.011 C 
HETATM    4  N7  UNL     1     -34.574   5.981   6.617  1.00 20.00    -0.192 NA
ENDROOT
BRANCH   3   5
HETATM    5  C4  UNL     1     -33.126   6.443   1.987  1.00 20.00    -0.002 C 
HETATM    6  C5  UNL     1     -32.533   7.620   1.733  1.00 20.00    -0.012 C 
BRANCH   6   7
HETATM    7  C6  UNL     1     -32.164   8.077   0.359  1.00 20.00     0.141 C 
HETATM    8 CL8  UNL     1     -33.005   9.595  -0.020  1.00 20.00    -0.126 Cl
ENDBRANCH   6   7
ENDBRANCH   3   5
TORSDOF 2
