REMARK  3 active torsions:
REMARK  status: ('A' for Active; 'I' for Inactive)
REMARK    1  A    between atoms: C1_1  and  C5_5 
REMARK    2  A    between atoms: C3_3  and  C4_4 
REMARK    3  A    between atoms: C3_3  and  C5_5 
ROOT
HETATM    1  C2  UNL     1     -33.363   4.843   3.092  1.00 20.00     0.017 C 
HETATM    2  C5  UNL     1     -33.393   6.275   3.620  1.00 20.00     0.044 C 
ENDROOT
BRANCH   2   3
HETATM    3  C1  UNL     1     -34.416   6.334   4.742  1.00 20.00     0.235 C 
HETATM    4  O6  UNL     1     -34.741   5.385   5.447  1.00 20.00    -0.306 OA
ENDBRANCH   2   3
BRANCH   2   5
HETATM    5  C3  UNL     1     -33.690   7.267   2.486  1.00 20.00     0.026 C 
BRANCH   5   6
HETATM    6  C4  UNL     1     -32.454   7.564   1.640  1.00 20.00     0.115 C 
HETATM    7 CL7  UNL     1     -32.860   8.696   0.329  1.00 20.00    -0.130 Cl
ENDBRANCH   5   6
ENDBRANCH   2   5
TORSDOF 3
