REMARK  1 active torsions:
REMARK  status: ('A' for Active; 'I' for Inactive)
REMARK    1  A    between atoms: C1_1  and  C5_5 
ROOT
HETATM    1  C2  UNL     1     -33.112   7.110   5.183  1.00 20.00     0.029 C 
HETATM    2  C3  UNL     1     -34.104   7.113   4.043  1.00 20.00     0.047 C 
HETATM    3  C4  UNL     1     -33.858   6.333   6.245  1.00 20.00     0.169 C 
HETATM    4  C5  UNL     1     -34.755   5.742   4.176  1.00 20.00     0.110 C 
HETATM    5  C6  UNL     1     -36.208   5.723   3.731  1.00 20.00     0.053 C 
HETATM    6  O8  UNL     1     -34.663   5.366   5.556  1.00 20.00    -0.373 OA
ENDROOT
BRANCH   4   7
HETATM    7  C1  UNL     1     -33.999   4.691   3.414  1.00 20.00     0.268 C 
HETATM    8  O7  UNL     1     -33.358   4.924   2.395  1.00 20.00    -0.304 OA
ENDBRANCH   4   7
TORSDOF 1
