REMARK  3 active torsions:
REMARK  status: ('A' for Active; 'I' for Inactive)
REMARK    1  A    between atoms: C6_6  and  C7_7 
REMARK    2  A    between atoms: C7_7  and  C8_8 
REMARK    3  A    between atoms: C8_8  and  C9_9 
ROOT
HETATM    1  C1  UNL     1     -33.258   7.001   4.719  1.00 20.00     0.069 C 
HETATM    2  C2  UNL     1     -34.418   4.160   4.730  1.00 20.00     0.002 C 
HETATM    3  C3  UNL     1     -35.574   5.045   5.196  1.00 20.00     0.002 C 
HETATM    4  C4  UNL     1     -33.781   4.882   3.543  1.00 20.00     0.024 C 
HETATM    5  C5  UNL     1     -35.582   6.260   4.268  1.00 20.00     0.024 C 
HETATM    6  C6  UNL     1     -34.149   6.358   3.730  1.00 20.00     0.049 C 
HETATM    7  N10 UNL     1     -32.559   7.506   5.496  1.00 20.00    -0.196 NA
ENDROOT
BRANCH   6   8
HETATM    8  C7  UNL     1     -34.085   7.134   2.415  1.00 20.00     0.026 C 
BRANCH   8   9
HETATM    9  C8  UNL     1     -32.674   7.123   1.834  1.00 20.00     0.017 C 
BRANCH   9  10
HETATM   10  C9  UNL     1     -32.628   7.870   0.508  1.00 20.00     0.114 C 
HETATM   11 CL11 UNL     1     -33.142   9.558   0.729  1.00 20.00    -0.130 Cl
ENDBRANCH   9  10
ENDBRANCH   8   9
ENDBRANCH   6   8
TORSDOF 3
