REMARK  1 active torsions:
REMARK  status: ('A' for Active; 'I' for Inactive)
REMARK    1  A    between atoms: C6_6  and  C8_8 
ROOT
HETATM    1  C1  UNL     1     -32.960   7.151   2.699  1.00 20.00     0.069 C 
HETATM    2  C2  UNL     1     -34.543   6.076   5.963  1.00 20.00     0.002 C 
HETATM    3  C3  UNL     1     -35.597   5.634   4.948  1.00 20.00     0.002 C 
HETATM    4  C4  UNL     1     -33.447   6.779   5.161  1.00 20.00     0.024 C 
HETATM    5  C5  UNL     1     -35.090   6.090   3.580  1.00 20.00     0.024 C 
HETATM    6  C6  UNL     1     -33.570   6.214   3.740  1.00 20.00     0.049 C 
HETATM    7  N9  UNL     1     -32.496   7.863   1.908  1.00 20.00    -0.196 NA
ENDROOT
BRANCH   6   8
HETATM    8  C8  UNL     1     -32.921   4.889   3.644  1.00 20.00     0.020 C 
HETATM    9  C7  UNL     1     -33.109   4.281   2.293  1.00 20.00     0.007 C 
ENDBRANCH   6   8
TORSDOF 1
