REMARK  0 active torsions:
REMARK  status: ('A' for Active; 'I' for Inactive)
ROOT
HETATM    1  C1  UNL     1     -33.155   7.137   2.753  1.00 20.00     0.095 C 
HETATM    2  C2  UNL     1     -34.458   5.951   6.118  1.00 20.00    -0.026 C 
HETATM    3  C3  UNL     1     -34.633   4.650   5.851  1.00 20.00    -0.001 C 
HETATM    4  C4  UNL     1     -33.945   6.903   5.078  1.00 20.00     0.077 C 
HETATM    5  C5  UNL     1     -34.362   4.076   4.492  1.00 20.00     0.298 C 
HETATM    6  C6  UNL     1     -33.340   6.181   3.858  1.00 20.00     0.329 C 
HETATM    7  N7  UNL     1     -33.010   7.890   1.882  1.00 20.00    -0.195 NA
HETATM    8  N8  UNL     1     -34.213   5.082   3.432  1.00 20.00     0.105 N 
HETATM    9  H16 UNL     1     -33.826   4.630   2.603  1.00 20.00     0.318 HD
ENDROOT
TORSDOF 0
