REMARK  0 active torsions:
REMARK  status: ('A' for Active; 'I' for Inactive)
ROOT
HETATM    1  C1  UNL     1     -35.952   5.763   3.983  1.00 20.00     0.068 C 
HETATM    2  C2  UNL     1     -31.886   5.796   2.012  1.00 20.00     0.009 A 
HETATM    3  C3  UNL     1     -31.921   6.972   1.260  1.00 20.00     0.019 A 
HETATM    4  C4  UNL     1     -33.791   7.810   2.572  1.00 20.00     0.028 A 
HETATM    5  C5  UNL     1     -32.799   5.648   3.042  1.00 20.00    -0.050 A 
HETATM    6  C6  UNL     1     -33.748   6.642   3.318  1.00 20.00    -0.033 A 
HETATM    7  C7  UNL     1     -32.866   7.972   1.539  1.00 20.00     0.011 A 
HETATM    8  C8  UNL     1     -32.974   4.475   3.953  1.00 20.00     0.041 C 
HETATM    9  C9  UNL     1     -33.816   5.096   5.081  1.00 20.00     0.028 C 
HETATM   10  C10 UNL     1     -34.644   6.237   4.453  1.00 20.00     0.126 C 
HETATM   11  N11 UNL     1     -36.986   5.388   3.612  1.00 20.00    -0.197 NA
HETATM   12 BR12 UNL     1     -32.891   9.551   0.497  1.00 20.00    -0.051 Br
ENDROOT
TORSDOF 0
