REMARK  1 active torsions:
REMARK  status: ('A' for Active; 'I' for Inactive)
REMARK    1  A    between atoms: C4_4  and  O6_6 
ROOT
HETATM    1  C1  UNL     1     -34.073   7.069   5.652  1.00 20.00     0.038 C 
HETATM    2  C2  UNL     1     -32.920   7.044   4.653  1.00 20.00     0.081 C 
HETATM    3  C3  UNL     1     -34.576   5.576   3.768  1.00 20.00     0.110 C 
HETATM    4  C4  UNL     1     -35.069   6.017   5.148  1.00 20.00     0.124 C 
HETATM    5  C5  UNL     1     -33.605   6.662   3.361  1.00 20.00     0.246 C 
HETATM    6  F7  UNL     1     -32.734   6.241   2.428  1.00 20.00    -0.206 F 
HETATM    7  F8  UNL     1     -34.274   7.724   2.855  1.00 20.00    -0.206 F 
ENDROOT
BRANCH   4   8
HETATM    8  O6  UNL     1     -35.094   4.910   6.037  1.00 20.00    -0.395 OA
HETATM    9  H16 UNL     1     -35.735   4.279   5.676  1.00 20.00     0.210 HD
ENDBRANCH   4   8
TORSDOF 1
