REMARK  3 active torsions:
REMARK  status: ('A' for Active; 'I' for Inactive)
REMARK    1  A    between atoms: C4_4  and  C7_7 
REMARK    2  A    between atoms: C7_7  and  C8_8 
REMARK    3  A    between atoms: C8_8  and  C9_9 
ROOT
HETATM    1  C1  UNL     1     -33.737   4.811   3.179  1.00 20.00     0.141 C 
HETATM    2  C2  UNL     1     -34.825   4.189   4.016  1.00 20.00     0.152 C 
HETATM    3  C3  UNL     1     -34.316   6.747   4.526  1.00 20.00     0.086 C 
HETATM    4  C4  UNL     1     -33.185   6.118   3.723  1.00 20.00     0.065 C 
HETATM    5  O10 UNL     1     -33.306   4.266   2.166  1.00 20.00    -0.297 OA
HETATM    6  S11 UNL     1     -35.123   5.361   5.359  1.00 20.00    -0.161 SA
ENDROOT
BRANCH   4   7
HETATM    7  C7  UNL     1     -32.699   7.041   2.616  1.00 20.00     0.013 C 
BRANCH   7   8
HETATM    8  C8  UNL     1     -33.823   7.370   1.631  1.00 20.00     0.005 C 
BRANCH   8   9
HETATM    9  C9  UNL     1     -33.403   8.361   0.530  1.00 20.00    -0.023 C 
HETATM   10  C5  UNL     1     -32.245   7.774  -0.282  1.00 20.00     0.009 C 
HETATM   11  C6  UNL     1     -32.999   9.724   1.093  1.00 20.00     0.009 C 
ENDBRANCH   8   9
ENDBRANCH   7   8
ENDBRANCH   4   7
TORSDOF 3
