REMARK  2 active torsions:
REMARK  status: ('A' for Active; 'I' for Inactive)
REMARK    1  A    between atoms: C5_5  and  C6_6 
REMARK    2  A    between atoms: C6_6  and  C7_7 
ROOT
HETATM    1  C1  UNL     1     -33.831   4.857   3.151  1.00 20.00     0.131 C 
HETATM    2  C2  UNL     1     -34.615   4.004   4.116  1.00 20.00     0.079 C 
HETATM    3  C3  UNL     1     -34.671   4.893   5.352  1.00 20.00     0.008 C 
HETATM    4  C4  UNL     1     -34.674   6.312   4.798  1.00 20.00     0.013 C 
HETATM    5  C5  UNL     1     -33.650   6.272   3.663  1.00 20.00     0.064 C 
HETATM    6  O8  UNL     1     -33.396   4.447   2.083  1.00 20.00    -0.298 OA
ENDROOT
BRANCH   5   7
HETATM    7  C6  UNL     1     -33.903   7.323   2.600  1.00 20.00     0.129 C 
BRANCH   7   8
HETATM    8  C7  UNL     1     -32.728   7.465   1.671  1.00 20.00     0.388 C 
HETATM    9  F9  UNL     1     -31.609   7.835   2.330  1.00 20.00    -0.171 F 
HETATM   10  F10 UNL     1     -32.989   8.415   0.745  1.00 20.00    -0.171 F 
HETATM   11  F11 UNL     1     -32.466   6.316   1.013  1.00 20.00    -0.171 F 
ENDBRANCH   7   8
ENDBRANCH   5   7
TORSDOF 2
