REMARK  2 active torsions:
REMARK  status: ('A' for Active; 'I' for Inactive)
REMARK    1  A    between atoms: C5_5  and  C6_6 
REMARK    2  A    between atoms: C6_6  and  C7_7 
ROOT
HETATM    1  C1  UNL     1     -34.006   4.823   3.890  1.00 20.00     0.131 C 
HETATM    2  C2  UNL     1     -33.512   4.290   5.212  1.00 20.00     0.079 C 
HETATM    3  C3  UNL     1     -34.397   5.034   6.203  1.00 20.00     0.008 C 
HETATM    4  C4  UNL     1     -34.682   6.370   5.530  1.00 20.00     0.013 C 
HETATM    5  C5  UNL     1     -34.938   6.004   4.067  1.00 20.00     0.064 C 
HETATM    6  O8  UNL     1     -33.684   4.351   2.807  1.00 20.00    -0.298 OA
ENDROOT
BRANCH   5   7
HETATM    7  C6  UNL     1     -34.641   7.141   3.111  1.00 20.00     0.129 C 
BRANCH   7   8
HETATM    8  C7  UNL     1     -33.160   7.325   2.911  1.00 20.00     0.388 C 
HETATM    9  F9  UNL     1     -32.529   7.610   4.069  1.00 20.00    -0.171 F 
HETATM   10  F10 UNL     1     -32.938   8.351   2.060  1.00 20.00    -0.171 F 
HETATM   11  F11 UNL     1     -32.586   6.224   2.381  1.00 20.00    -0.171 F 
ENDBRANCH   7   8
ENDBRANCH   5   7
TORSDOF 2
