REMARK  2 active torsions:
REMARK  status: ('A' for Active; 'I' for Inactive)
REMARK    1  A    between atoms: C6_6  and  C7_7 
REMARK    2  A    between atoms: C7_7  and  C8_8 
ROOT
HETATM    1  C1  UNL     1     -33.491   5.692   3.399  1.00 20.00     0.131 C 
HETATM    2  C2  UNL     1     -34.893   5.339   3.847  1.00 20.00     0.079 C 
HETATM    3  C3  UNL     1     -35.054   5.545   5.345  1.00 20.00     0.007 C 
HETATM    4  C4  UNL     1     -34.619   6.944   5.774  1.00 20.00     0.001 C 
HETATM    5  C5  UNL     1     -33.172   7.212   5.365  1.00 20.00     0.012 C 
HETATM    6  C6  UNL     1     -32.923   7.023   3.866  1.00 20.00     0.064 C 
HETATM    7  O9  UNL     1     -32.874   4.976   2.609  1.00 20.00    -0.298 OA
ENDROOT
BRANCH   6   8
HETATM    8  C7  UNL     1     -33.500   8.155   3.023  1.00 20.00     0.129 C 
BRANCH   8   9
HETATM    9  C8  UNL     1     -32.817   8.243   1.688  1.00 20.00     0.388 C 
HETATM   10  F10 UNL     1     -31.491   8.466   1.813  1.00 20.00    -0.171 F 
HETATM   11  F11 UNL     1     -33.339   9.271   0.983  1.00 20.00    -0.171 F 
HETATM   12  F12 UNL     1     -32.986   7.120   0.959  1.00 20.00    -0.171 F 
ENDBRANCH   8   9
ENDBRANCH   6   8
TORSDOF 2
