REMARK  2 active torsions:
REMARK  status: ('A' for Active; 'I' for Inactive)
REMARK    1  A    between atoms: C1_1  and  C3_3 
REMARK    2  A    between atoms: C2_2  and  C4_4 
ROOT
HETATM    1  C1  UNL     1     -33.888   6.431   5.037  1.00 20.00     0.223 C 
HETATM    2  C2  UNL     1     -33.109   7.131   4.197  1.00 20.00     0.223 C 
HETATM    3  F5  UNL     1     -33.878   6.761   6.351  1.00 20.00    -0.200 F 
HETATM    4  F6  UNL     1     -32.325   8.109   4.712  1.00 20.00    -0.200 F 
ENDROOT
BRANCH   1   5
HETATM    5  C3  UNL     1     -34.792   5.313   4.630  1.00 20.00     0.377 C 
HETATM    6  F7  UNL     1     -34.336   4.633   3.544  1.00 20.00    -0.180 F 
HETATM    7  F8  UNL     1     -36.014   5.798   4.281  1.00 20.00    -0.180 F 
HETATM    8 CL11 UNL     1     -34.990   4.175   5.977  1.00 20.00    -0.040 Cl
ENDBRANCH   1   5
BRANCH   2   9
HETATM    9  C4  UNL     1     -33.023   6.904   2.723  1.00 20.00     0.377 C 
HETATM   10  F9  UNL     1     -32.047   5.999   2.442  1.00 20.00    -0.180 F 
HETATM   11  F10 UNL     1     -34.169   6.393   2.198  1.00 20.00    -0.180 F 
HETATM   12 CL12 UNL     1     -32.645   8.429   1.897  1.00 20.00    -0.040 Cl
ENDBRANCH   2   9
TORSDOF 2
