REMARK  1 active torsions:
REMARK  status: ('A' for Active; 'I' for Inactive)
REMARK    1  A    between atoms: C4_4  and  C6_6 
ROOT
HETATM    1  C1  UNL     1     -33.416   6.514   4.339  1.00 20.00     0.039 A 
HETATM    2  C2  UNL     1     -32.799   5.282   2.400  1.00 20.00     0.129 A 
HETATM    3  C3  UNL     1     -34.487   4.478   3.735  1.00 20.00     0.140 A 
HETATM    4  C4  UNL     1     -32.609   6.387   3.214  1.00 20.00    -0.000 A 
HETATM    5  C5  UNL     1     -34.376   5.545   4.612  1.00 20.00     0.052 A 
HETATM    6  N8  UNL     1     -33.721   4.320   2.633  1.00 20.00    -0.271 NA
HETATM    7 CL10 UNL     1     -35.390   5.668   5.989  1.00 20.00    -0.083 Cl
ENDROOT
BRANCH   4   8
HETATM    8  C6  UNL     1     -31.597   7.381   2.902  1.00 20.00     0.017 C 
HETATM    9  C7  UNL     1     -31.688   8.132   1.572  1.00 20.00     0.062 C 
HETATM   10  S9  UNL     1     -30.330   7.809   3.954  1.00 20.00    -0.084 SA
ENDBRANCH   4   8
TORSDOF 1
