REMARK  1 active torsions:
REMARK  status: ('A' for Active; 'I' for Inactive)
REMARK    1  A    between atoms: C3_3  and  C9_9 
ROOT
HETATM    1  C1  UNL     1     -33.337   8.796   2.146  1.00 20.00     0.017 A 
HETATM    2  C2  UNL     1     -33.118   9.311   0.836  1.00 20.00     0.032 A 
HETATM    3  C3  UNL     1     -32.993   7.465   2.242  1.00 20.00    -0.011 A 
HETATM    4  C4  UNL     1     -32.615   8.355  -0.020  1.00 20.00     0.075 A 
HETATM    5  S11 UNL     1     -32.409   6.843   0.757  1.00 20.00    -0.082 SA
HETATM    6 CL12 UNL     1     -32.208   8.536  -1.674  1.00 20.00    -0.076 Cl
ENDROOT
BRANCH   3   7
HETATM    7  C9  UNL     1     -33.073   6.558   3.448  1.00 20.00     0.033 C 
HETATM    8  C7  UNL     1     -33.988   5.343   3.253  1.00 20.00     0.088 C 
HETATM    9  C5  UNL     1     -34.342   4.999   4.678  1.00 20.00     0.127 C 
HETATM   10  C6  UNL     1     -33.944   6.083   5.647  1.00 20.00     0.079 C 
HETATM   11  O10 UNL     1     -34.890   3.955   5.011  1.00 20.00    -0.298 OA
HETATM   12  C8  UNL     1     -33.615   7.240   4.709  1.00 20.00     0.018 C 
ENDBRANCH   3   7
TORSDOF 1
