REMARK  0 active torsions:
REMARK  status: ('A' for Active; 'I' for Inactive)
ROOT
HETATM    1  C1  UNL     1     -34.308   4.456   3.540  1.00 20.00     0.017 C 
HETATM    2  C2  UNL     1     -34.633   4.847   4.627  1.00 20.00    -0.090 C 
HETATM    3  C3  UNL     1     -35.024   5.305   5.914  1.00 20.00     0.059 C 
HETATM    4  C4  UNL     1     -34.584   6.468   6.411  1.00 20.00    -0.022 C 
HETATM    5  C5  UNL     1     -33.659   7.384   5.680  1.00 20.00     0.036 C 
ENDROOT
TORSDOF 0
