REMARK  2 active torsions:
REMARK  status: ('A' for Active; 'I' for Inactive)
REMARK    1  A    between atoms: C1_1  and  C3_3 
REMARK    2  A    between atoms: C2_2  and  C8_8 
ROOT
HETATM    1  C4  UNL     1     -34.703   4.222   4.938  1.00 20.00     0.011 C 
HETATM    2  C5  UNL     1     -33.787   4.878   3.906  1.00 20.00     0.010 C 
HETATM    3  C6  UNL     1     -34.420   4.675   6.363  1.00 20.00     0.074 C 
HETATM    4  C7  UNL     1     -33.566   7.039   5.233  1.00 20.00     0.082 C 
HETATM    5  C8  UNL     1     -33.912   6.408   3.880  1.00 20.00     0.017 C 
HETATM    6  S11 UNL     1     -34.667   6.462   6.559  1.00 20.00    -0.168 SA
ENDROOT
BRANCH   5   7
HETATM    7  C2  UNL     1     -33.026   6.979   2.809  1.00 20.00    -0.018 C 
HETATM    8  C1  UNL     1     -33.490   7.669   1.760  1.00 20.00     0.046 C 
BRANCH   8   9
HETATM    9  C3  UNL     1     -32.557   8.207   0.732  1.00 20.00     0.145 C 
HETATM   10  C9  UNL     1     -33.173   8.970  -0.412  1.00 20.00     0.096 C 
HETATM   11  O10 UNL     1     -31.342   8.033   0.795  1.00 20.00    -0.294 OA
ENDBRANCH   8   9
ENDBRANCH   5   7
TORSDOF 2
