REMARK  2 active torsions:
REMARK  status: ('A' for Active; 'I' for Inactive)
REMARK    1  A    between atoms: C6_6  and  C8_8 
REMARK    2  A    between atoms: C7_7  and  C9_9 
ROOT
HETATM    1  C1  UNL     1     -34.482   5.457   4.798  1.00 20.00     0.132 C 
HETATM    2  C2  UNL     1     -34.013   6.911   5.459  1.00 20.00     0.084 C 
HETATM    3  C6  UNL     1     -34.165   6.119   3.452  1.00 20.00     0.064 C 
HETATM    4  C7  UNL     1     -32.978   6.778   4.284  1.00 20.00     0.008 C 
HETATM    5  O10 UNL     1     -34.878   4.381   5.168  1.00 20.00    -0.298 OA
ENDROOT
BRANCH   3   6
HETATM    6  C8  UNL     1     -33.435   5.767   2.157  1.00 20.00    -0.003 C 
HETATM    7  C3  UNL     1     -33.647   7.029   1.278  1.00 20.00     0.006 C 
HETATM    8  C4  UNL     1     -32.901   8.113   2.098  1.00 20.00     0.005 C 
HETATM    9  C9  UNL     1     -32.112   7.297   3.138  1.00 20.00    -0.009 C 
HETATM   10  C5  UNL     1     -31.934   5.940   2.416  1.00 20.00     0.010 C 
ENDBRANCH   3   6
TORSDOF 2
