REMARK  2 active torsions:
REMARK  status: ('A' for Active; 'I' for Inactive)
REMARK    1  A    between atoms: C6_6  and  O11_11 
REMARK    2  A    between atoms: C9_9  and  O11_11 
ROOT
HETATM    1  C1  UNL     1     -34.347   7.713   5.754  1.00 20.00     0.002 C 
HETATM    2  C2  UNL     1     -34.897   7.225   4.389  1.00 20.00     0.015 C 
HETATM    3  C3  UNL     1     -32.946   7.223   5.307  1.00 20.00     0.015 C 
HETATM    4  C4  UNL     1     -33.583   4.661   3.035  1.00 20.00     0.069 C 
HETATM    5  C5  UNL     1     -33.700   4.843   4.574  1.00 20.00     0.173 C 
HETATM    6  C6  UNL     1     -33.006   6.104   2.959  1.00 20.00     0.135 C 
HETATM    7  C7  UNL     1     -33.666   6.339   4.307  1.00 20.00     0.015 C 
HETATM    8  O10 UNL     1     -34.892   4.319   5.091  1.00 20.00    -0.234 OA
ENDROOT
BRANCH   6   9
HETATM    9  O11 UNL     1     -33.449   6.901   1.847  1.00 20.00    -0.385 OA
BRANCH   9  10
HETATM   10  C9  UNL     1     -32.862   8.188   1.882  1.00 20.00     0.163 C 
HETATM   11  C8  UNL     1     -33.356   8.988   0.696  1.00 20.00     0.033 C 
ENDBRANCH   9  10
ENDBRANCH   6   9
TORSDOF 2
