REMARK  2 active torsions:
REMARK  status: ('A' for Active; 'I' for Inactive)
REMARK    1  A    between atoms: C3_3  and  C6_6 
REMARK    2  A    between atoms: C6_6  and  C7_7 
ROOT
HETATM    1  C1  UNL     1     -32.739   7.896   1.411  1.00 20.00    -0.176 C 
HETATM    2  C2  UNL     1     -33.100   8.536   0.341  1.00 20.00     0.091 C 
HETATM    3  C3  UNL     1     -32.375   7.256   2.484  1.00 20.00     0.067 C 
ENDROOT
BRANCH   3   4
HETATM    4  C6  UNL     1     -33.059   6.035   3.029  1.00 20.00     0.021 C 
BRANCH   4   5
HETATM    5  C7  UNL     1     -34.171   6.365   4.042  1.00 20.00    -0.021 C 
HETATM    6  C4  UNL     1     -33.636   7.129   5.256  1.00 20.00     0.009 C 
HETATM    7  C5  UNL     1     -34.854   5.076   4.503  1.00 20.00     0.009 C 
ENDBRANCH   4   5
ENDBRANCH   3   4
TORSDOF 2
