REMARK  3 active torsions:
REMARK  status: ('A' for Active; 'I' for Inactive)
REMARK    1  A    between atoms: C1_1  and  C6_6 
REMARK    2  A    between atoms: C6_6  and  C7_7 
REMARK    3  A    between atoms: C6_6  and  O9_9 
ROOT
HETATM    1  C2  UNL     1     -33.393   4.215   5.181  1.00 20.00     0.054 C 
HETATM    2  C6  UNL     1     -34.346   5.291   4.650  1.00 20.00     0.113 C 
ENDROOT
BRANCH   2   3
HETATM    3  C1  UNL     1     -34.347   5.194   3.128  1.00 20.00     0.269 C 
HETATM    4  O8  UNL     1     -33.391   4.815   2.458  1.00 20.00    -0.304 OA
ENDBRANCH   2   3
BRANCH   2   5
HETATM    5  C7  UNL     1     -34.021   6.748   5.135  1.00 20.00    -0.014 C 
HETATM    6  C3  UNL     1     -35.073   7.747   4.597  1.00 20.00     0.018 C 
HETATM    7  C4  UNL     1     -32.645   7.208   4.598  1.00 20.00     0.018 C 
HETATM    8  C5  UNL     1     -33.990   6.868   6.672  1.00 20.00     0.018 C 
ENDBRANCH   2   5
BRANCH   2   9
HETATM    9  O9  UNL     1     -35.668   4.952   5.075  1.00 20.00    -0.382 OA
HETATM   10  H23 UNL     1     -35.832   4.050   4.763  1.00 20.00     0.211 HD
ENDBRANCH   2   9
TORSDOF 3
