REMARK  0 active torsions:
REMARK  status: ('A' for Active; 'I' for Inactive)
ROOT
HETATM    1  C1  UNL     1     -33.726   5.445   1.932  1.00 20.00     0.109 C 
HETATM    2  C2  UNL     1     -32.819   6.569   2.440  1.00 20.00     0.226 C 
HETATM    3  C3  UNL     1     -33.209   6.130   4.810  1.00 20.00     0.230 C 
HETATM    4  C4  UNL     1     -34.191   4.954   4.618  1.00 20.00     0.076 C 
HETATM    5  C5  UNL     1     -32.790   7.708   1.417  1.00 20.00     0.043 C 
HETATM    6  C6  UNL     1     -33.458   6.859   6.136  1.00 20.00     0.043 C 
HETATM    7  C7  UNL     1     -35.670   5.346   4.602  1.00 20.00     0.023 C 
HETATM    8  N8  UNL     1     -33.276   7.117   3.724  1.00 20.00     0.093 N 
HETATM    9  S9  UNL     1     -33.778   4.042   3.084  1.00 20.00    -0.160 SA
HETATM   10  H24 UNL     1     -32.700   7.924   3.966  1.00 20.00     0.316 HD
ENDROOT
TORSDOF 0
