REMARK  4 active torsions:
REMARK  status: ('A' for Active; 'I' for Inactive)
REMARK    1  A    between atoms: C1_1  and  C6_6 
REMARK    2  A    between atoms: C2_2  and  C7_7 
REMARK    3  A    between atoms: C6_6  and  O9_9 
REMARK    4  A    between atoms: C8_8  and  O9_9 
ROOT
HETATM    1  C6  UNL     1     -33.263   5.875   3.029  1.00 20.00     0.196 C 
ENDROOT
BRANCH   1   2
HETATM    2  C1  UNL     1     -32.630   6.780   2.023  1.00 20.00    -0.004 C 
HETATM    3  C2  UNL     1     -32.765   8.114   2.033  1.00 20.00    -0.014 C 
BRANCH   3   4
HETATM    4  C7  UNL     1     -32.120   9.018   1.035  1.00 20.00     0.141 C 
HETATM    5 CL10 UNL     1     -33.213   9.281  -0.340  1.00 20.00    -0.126 Cl
ENDBRANCH   3   4
ENDBRANCH   1   2
BRANCH   1   6
HETATM    6  O9  UNL     1     -33.406   6.581   4.251  1.00 20.00    -0.378 OA
BRANCH   6   7
HETATM    7  C8  UNL     1     -34.008   5.762   5.255  1.00 20.00     0.050 C 
HETATM    8  C3  UNL     1     -33.117   4.543   5.486  1.00 20.00     0.045 C 
HETATM    9  C4  UNL     1     -34.114   6.599   6.528  1.00 20.00     0.045 C 
HETATM   10  C5  UNL     1     -35.395   5.340   4.772  1.00 20.00     0.045 C 
ENDBRANCH   6   7
ENDBRANCH   1   6
TORSDOF 4
