REMARK  3 active torsions:
REMARK  status: ('A' for Active; 'I' for Inactive)
REMARK    1  A    between atoms: C1_1  and  C3_3 
REMARK    2  A    between atoms: C2_2  and  C6_6 
REMARK    3  A    between atoms: C3_3  and  O10_10 
ROOT
HETATM    1  C1  UNL     1     -33.989   5.572   3.657  1.00 20.00     0.014 C 
HETATM    2  C2  UNL     1     -33.401   6.782   3.507  1.00 20.00    -0.067 C 
HETATM    3  C7  UNL     1     -33.735   4.359   2.807  1.00 20.00     0.056 C 
HETATM    4  C8  UNL     1     -33.652   7.966   4.380  1.00 20.00     0.044 C 
ENDROOT
BRANCH   1   5
HETATM    5  C3  UNL     1     -34.946   5.379   4.779  1.00 20.00     0.171 C 
HETATM    6  O9  UNL     1     -34.689   5.505   5.964  1.00 20.00    -0.646 OA
BRANCH   5   7
HETATM    7  O10 UNL     1     -36.158   5.034   4.285  1.00 20.00    -0.773 OA
HETATM    8  H22 UNL     1     -36.818   4.895   4.998  1.00 20.00     0.167 HD
ENDBRANCH   5   7
ENDBRANCH   1   5
BRANCH   2   9
HETATM    9  C6  UNL     1     -32.431   7.063   2.380  1.00 20.00     0.015 A 
HETATM   10  C4  UNL     1     -32.907   6.806   1.006  1.00 20.00     0.010 A 
HETATM   11  C5  UNL     1     -32.737   8.210   1.502  1.00 20.00     0.010 A 
ENDBRANCH   2   9
TORSDOF 3
