REMARK  2 active torsions:
REMARK  status: ('A' for Active; 'I' for Inactive)
REMARK    1  A    between atoms: C2_2  and  C4_4 
REMARK    2  A    between atoms: C4_4  and  C5_5 
ROOT
HETATM    1  C1  UNL     1     -32.952   7.740   0.951  1.00 20.00    -0.035 C 
HETATM    2  C2  UNL     1     -32.651   7.419   2.219  1.00 20.00    -0.030 C 
HETATM    3  C3  UNL     1     -32.554   8.980   0.262  1.00 20.00     0.036 C 
ENDROOT
BRANCH   2   4
HETATM    4  C4  UNL     1     -33.073   6.140   2.884  1.00 20.00     0.042 C 
BRANCH   4   5
HETATM    5  C5  UNL     1     -33.936   6.373   4.120  1.00 20.00     0.118 C 
HETATM    6 CL6  UNL     1     -34.392   4.840   4.903  1.00 20.00    -0.130 Cl
ENDBRANCH   4   5
ENDBRANCH   2   4
TORSDOF 2
