REMARK  3 active torsions:
REMARK  status: ('A' for Active; 'I' for Inactive)
REMARK    1  A    between atoms: C4_4  and  O9_9 
REMARK    2  A    between atoms: C6_6  and  C7_7 
REMARK    3  A    between atoms: C6_6  and  N8_8 
ROOT
HETATM    1  C1  UNL     1     -33.632   8.395   3.043  1.00 20.00     0.064 C 
HETATM    2  C2  UNL     1     -34.363   7.130   3.466  1.00 20.00     0.275 C 
HETATM    3  C3  UNL     1     -32.571   6.386   2.176  1.00 20.00     0.304 C 
HETATM    4  C4  UNL     1     -32.602   7.906   2.026  1.00 20.00     0.150 C 
HETATM    5  N8  UNL     1     -33.292   6.136   3.427  1.00 20.00     0.092 N 
ENDROOT
BRANCH   5   6
HETATM    6  C6  UNL     1     -33.793   4.773   3.520  1.00 20.00     0.287 C 
BRANCH   6   7
HETATM    7  C7  UNL     1     -34.877   4.620   4.572  1.00 20.00     0.144 C 
HETATM    8 CL10 UNL     1     -34.279   5.067   6.189  1.00 20.00    -0.129 Cl
ENDBRANCH   6   7
ENDBRANCH   5   6
BRANCH   4   9
HETATM    9  O9  UNL     1     -33.012   8.242   0.708  1.00 20.00    -0.389 OA
HETATM   10  C5  UNL     1     -32.721   9.599   0.401  1.00 20.00     0.202 C 
ENDBRANCH   4   9
TORSDOF 3
