REMARK  5 active torsions:
REMARK  status: ('A' for Active; 'I' for Inactive)
REMARK    1  A    between atoms: C1_1  and  C3_3 
REMARK    2  A    between atoms: C1_1  and  C4_4 
REMARK    3  A    between atoms: C3_3  and  C5_5 
REMARK    4  A    between atoms: C4_4  and  C6_6 
REMARK    5  A    between atoms: C6_6  and  C7_7 
ROOT
HETATM    1  C1  UNL     1     -33.455   6.425   3.964  1.00 20.00     0.127 C 
HETATM    2  O8  UNL     1     -33.190   6.967   5.036  1.00 20.00    -0.298 OA
ENDROOT
BRANCH   1   3
HETATM    3  C3  UNL     1     -34.612   5.450   3.813  1.00 20.00     0.078 C 
BRANCH   3   4
HETATM    4  C5  UNL     1     -34.437   4.196   4.665  1.00 20.00     0.003 C 
HETATM    5  C2  UNL     1     -34.373   4.533   6.146  1.00 20.00     0.005 C 
ENDBRANCH   3   4
ENDBRANCH   1   3
BRANCH   1   6
HETATM    6  C4  UNL     1     -32.671   6.713   2.691  1.00 20.00     0.079 C 
BRANCH   6   7
HETATM    7  C6  UNL     1     -33.204   7.901   1.891  1.00 20.00     0.022 C 
BRANCH   7   8
HETATM    8  C7  UNL     1     -32.438   8.107   0.589  1.00 20.00     0.115 C 
HETATM    9 CL9  UNL     1     -33.087   9.509  -0.294  1.00 20.00    -0.130 Cl
ENDBRANCH   7   8
ENDBRANCH   6   7
ENDBRANCH   1   6
TORSDOF 5
