REMARK  2 active torsions:
REMARK  status: ('A' for Active; 'I' for Inactive)
REMARK    1  A    between atoms: C1_1  and  C6_6 
REMARK    2  A    between atoms: C2_2  and  C7_7 
ROOT
HETATM    1  C1  UNL     1     -32.764   7.077   2.813  1.00 20.00    -0.015 C 
HETATM    2  C2  UNL     1     -33.528   6.038   3.185  1.00 20.00    -0.021 C 
ENDROOT
BRANCH   2   3
HETATM    3  C7  UNL     1     -34.272   5.857   4.500  1.00 20.00    -0.034 C 
HETATM    4  C3  UNL     1     -33.738   4.585   5.184  1.00 20.00     0.018 C 
HETATM    5  C4  UNL     1     -34.124   7.036   5.479  1.00 20.00     0.018 C 
HETATM    6  C5  UNL     1     -35.767   5.668   4.186  1.00 20.00     0.018 C 
ENDBRANCH   2   3
BRANCH   1   7
HETATM    7  C6  UNL     1     -32.079   7.162   1.488  1.00 20.00     0.141 C 
HETATM    8 CL8  UNL     1     -30.322   7.289   1.724  1.00 20.00    -0.126 Cl
ENDBRANCH   1   7
TORSDOF 2
