REMARK  0 active torsions:
REMARK  status: ('A' for Active; 'I' for Inactive)
ROOT
HETATM    1  C1  UNL     1     -34.518   5.618   4.914  1.00 20.00    -0.088 C 
HETATM    2  C2  UNL     1     -34.397   5.684   6.247  1.00 20.00     0.014 C 
HETATM    3  C3  UNL     1     -34.656   4.313   4.178  1.00 20.00     0.033 C 
HETATM    4  C4  UNL     1     -34.509   6.845   4.037  1.00 20.00     0.042 C 
HETATM    5  C5  UNL     1     -33.599   4.191   3.080  1.00 20.00     0.005 C 
HETATM    6  C6  UNL     1     -33.583   5.415   2.159  1.00 20.00     0.009 C 
HETATM    7  C7  UNL     1     -33.439   6.756   2.921  1.00 20.00    -0.044 C 
HETATM    8  C8  UNL     1     -33.646   7.919   1.933  1.00 20.00     0.015 C 
HETATM    9  C9  UNL     1     -32.023   6.887   3.520  1.00 20.00     0.015 C 
ENDROOT
TORSDOF 0
