REMARK  2 active torsions:
REMARK  status: ('A' for Active; 'I' for Inactive)
REMARK    1  A    between atoms: C2_2  and  C6_6 
REMARK    2  A    between atoms: C3_3  and  O7_7 
ROOT
HETATM    1  C1  UNL     1     -35.500   6.606   4.652  1.00 20.00     0.045 A 
HETATM    2  C2  UNL     1     -34.165   6.204   4.081  1.00 20.00     0.022 A 
HETATM    3  C3  UNL     1     -34.831   5.339   5.124  1.00 20.00     0.058 A 
HETATM    4  C4  UNL     1     -34.265   5.267   6.503  1.00 20.00     0.046 C 
ENDROOT
BRANCH   3   5
HETATM    5  O7  UNL     1     -35.431   4.111   4.679  1.00 20.00    -0.390 OA
HETATM    6  H19 UNL     1     -36.335   4.121   5.019  1.00 20.00     0.210 HD
ENDBRANCH   3   5
BRANCH   2   7
HETATM    7  C6  UNL     1     -34.062   5.769   2.659  1.00 20.00     0.003 C 
HETATM    8  C5  UNL     1     -32.853   4.908   2.393  1.00 20.00     0.005 C 
ENDBRANCH   2   7
TORSDOF 2
