REMARK  3 active torsions:
REMARK  status: ('A' for Active; 'I' for Inactive)
REMARK    1  A    between atoms: C6_6  and  C8_8 
REMARK    2  A    between atoms: C6_6  and  C9_9 
REMARK    3  A    between atoms: C9_9  and  O10_10 
ROOT
HETATM    1  C1  UNL     1     -32.653   6.137   1.334  1.00 20.00     0.000 C 
HETATM    2  C2  UNL     1     -32.607   4.902   2.226  1.00 20.00     0.001 C 
HETATM    3  C3  UNL     1     -32.988   7.397   2.126  1.00 20.00     0.001 C 
HETATM    4  C4  UNL     1     -33.898   4.734   3.028  1.00 20.00     0.011 C 
HETATM    5  C5  UNL     1     -34.279   7.234   2.927  1.00 20.00     0.011 C 
HETATM    6  C6  UNL     1     -34.280   5.990   3.844  1.00 20.00    -0.019 C 
ENDROOT
BRANCH   6   7
HETATM    7  C8  UNL     1     -33.308   6.186   5.023  1.00 20.00     0.007 C 
HETATM    8  C7  UNL     1     -33.663   7.392   5.820  1.00 20.00     0.006 C 
ENDBRANCH   6   7
BRANCH   6   9
HETATM    9  C9  UNL     1     -35.694   5.797   4.425  1.00 20.00     0.173 C 
BRANCH   9  10
HETATM   10  O10 UNL     1     -35.675   4.650   5.246  1.00 20.00    -0.400 OA
HETATM   11  H28 UNL     1     -36.572   4.536   5.608  1.00 20.00     0.209 HD
ENDBRANCH   9  10
ENDBRANCH   6   9
TORSDOF 3
