REMARK  3 active torsions:
REMARK  status: ('A' for Active; 'I' for Inactive)
REMARK    1  A    between atoms: C1_1  and  C6_6 
REMARK    2  A    between atoms: C2_2  and  C7_7 
REMARK    3  A    between atoms: C3_3  and  C7_7 
ROOT
HETATM    1  C1  UNL     1     -33.260   7.247   1.452  1.00 20.00    -0.026 C 
HETATM    2  C2  UNL     1     -33.037   6.745   2.677  1.00 20.00    -0.020 C 
ENDROOT
BRANCH   2   3
HETATM    3  C7  UNL     1     -33.692   5.506   3.202  1.00 20.00     0.140 C 
BRANCH   3   4
HETATM    4  C3  UNL     1     -34.500   5.890   4.436  1.00 20.00     0.176 C 
HETATM    5  O8  UNL     1     -33.824   6.351   5.399  1.00 20.00    -0.648 OA
HETATM    6  O9  UNL     1     -35.744   5.687   4.348  1.00 20.00    -0.648 OA
ENDBRANCH   3   4
ENDBRANCH   2   3
BRANCH   1   7
HETATM    7  C6  UNL     1     -32.646   8.467   0.899  1.00 20.00     0.008 A 
HETATM    8  C4  UNL     1     -33.374   9.203  -0.180  1.00 20.00     0.009 A 
HETATM    9  C5  UNL     1     -33.287   9.784   1.199  1.00 20.00     0.009 A 
ENDBRANCH   1   7
TORSDOF 3
