REMARK  1 active torsions:
REMARK  status: ('A' for Active; 'I' for Inactive)
REMARK    1  A    between atoms: C1_1  and  C7_7 
ROOT
HETATM    1  C2  UNL     1     -32.876   7.262   5.257  1.00 20.00     0.002 C 
HETATM    2  C3  UNL     1     -32.099   7.384   3.947  1.00 20.00     0.010 C 
HETATM    3  C4  UNL     1     -34.369   6.978   5.066  1.00 20.00     0.009 C 
HETATM    4  C5  UNL     1     -33.315   9.222   2.598  1.00 20.00     0.026 A 
HETATM    5  C6  UNL     1     -34.116   6.746   2.539  1.00 20.00     0.019 C 
HETATM    6  C7  UNL     1     -32.393   8.520   1.636  1.00 20.00     0.096 A 
HETATM    7  C8  UNL     1     -33.008   7.756   2.803  1.00 20.00    -0.025 A 
HETATM    8  C9  UNL     1     -34.687   6.104   3.834  1.00 20.00    -0.047 C 
HETATM    9  C10 UNL     1     -34.118   4.684   4.026  1.00 20.00     0.015 C 
HETATM   10  C11 UNL     1     -36.218   5.977   3.703  1.00 20.00     0.015 C 
ENDROOT
BRANCH   6  11
HETATM   11  C1  UNL     1     -32.882   8.277   0.292  1.00 20.00     0.177 C 
HETATM   12  O12 UNL     1     -33.324   9.293  -0.312  1.00 20.00    -0.648 OA
HETATM   13  O13 UNL     1     -32.798   7.077  -0.093  1.00 20.00    -0.648 OA
ENDBRANCH   6  11
TORSDOF 1
