REMARK  0 active torsions:
REMARK  status: ('A' for Active; 'I' for Inactive)
ROOT
HETATM    1  C1  UNL     1     -34.385   4.006   4.353  1.00 20.00     0.290 C 
HETATM    2  C2  UNL     1     -34.460   5.300   6.312  1.00 20.00     0.344 C 
HETATM    3  C3  UNL     1     -34.378   5.381   3.666  1.00 20.00     0.029 C 
HETATM    4  C4  UNL     1     -35.751   5.748   3.092  1.00 20.00     0.028 C 
HETATM    5  C5  UNL     1     -33.302   5.464   2.586  1.00 20.00     0.028 C 
HETATM    6  N6  UNL     1     -35.070   4.155   5.641  1.00 20.00     0.093 N 
HETATM    7  S7  UNL     1     -33.991   6.512   5.047  1.00 20.00    -0.128 SA
HETATM    8  H18 UNL     1     -36.053   4.364   5.468  1.00 20.00     0.316 HD
ENDROOT
TORSDOF 0
