REMARK  4 active torsions:
REMARK  status: ('A' for Active; 'I' for Inactive)
REMARK    1  A    between atoms: C2_2  and  C8_8 
REMARK    2  A    between atoms: C2_2  and  C9_9 
REMARK    3  A    between atoms: C3_3  and  C8_8 
REMARK    4  A    between atoms: C3_3  and  C10_10 
ROOT
HETATM    1  C3  UNL     1     -33.974   5.552   2.949  1.00 20.00     0.138 C 
HETATM    2  O11 UNL     1     -33.384   4.598   2.435  1.00 20.00    -0.297 OA
ENDROOT
BRANCH   1   3
HETATM    3  C8  UNL     1     -34.114   6.878   2.204  1.00 20.00     0.112 C 
BRANCH   3   4
HETATM    4  C2  UNL     1     -32.763   7.457   1.870  1.00 20.00    -0.083 C 
HETATM    5  C1  UNL     1     -31.707   7.265   2.677  1.00 20.00     0.014 C 
BRANCH   4   6
HETATM    6  C9  UNL     1     -32.638   8.268   0.600  1.00 20.00     0.029 C 
HETATM    7  C4  UNL     1     -32.920   9.748   0.815  1.00 20.00     0.010 C 
ENDBRANCH   4   6
ENDBRANCH   3   4
ENDBRANCH   1   3
BRANCH   1   8
HETATM    8  C10 UNL     1     -34.613   5.439   4.350  1.00 20.00     0.010 C 
HETATM    9  C5  UNL     1     -36.123   5.682   4.234  1.00 20.00     0.022 C 
HETATM   10  C6  UNL     1     -34.335   4.057   4.954  1.00 20.00     0.022 C 
HETATM   11  C7  UNL     1     -34.009   6.508   5.278  1.00 20.00     0.022 C 
ENDBRANCH   1   8
TORSDOF 4
