REMARK  3 active torsions:
REMARK  status: ('A' for Active; 'I' for Inactive)
REMARK    1  A    between atoms: C1_1  and  C5_5 
REMARK    2  A    between atoms: C3_3  and  C5_5 
REMARK    3  A    between atoms: C4_4  and  C5_5 
ROOT
HETATM    1  C5  UNL     1     -34.209   6.479   3.953  1.00 20.00     0.085 C 
ENDROOT
BRANCH   1   2
HETATM    2  C1  UNL     1     -33.470   5.828   2.783  1.00 20.00     0.224 C 
HETATM    3  O6  UNL     1     -33.644   4.651   2.477  1.00 20.00    -0.279 OA
HETATM    4 CL7  UNL     1     -32.392   6.931   1.974  1.00 20.00    -0.043 Cl
ENDBRANCH   1   2
BRANCH   1   5
HETATM    5  C3  UNL     1     -35.153   5.452   4.604  1.00 20.00     0.010 C 
HETATM    6  C2  UNL     1     -34.417   4.228   5.135  1.00 20.00     0.006 C 
ENDBRANCH   1   5
BRANCH   1   7
HETATM    7  C4  UNL     1     -33.198   6.989   4.987  1.00 20.00     0.128 C 
HETATM    8 CL8  UNL     1     -34.014   7.755   6.375  1.00 20.00    -0.130 Cl
ENDBRANCH   1   7
TORSDOF 3
