REMARK  5 active torsions:
REMARK  status: ('A' for Active; 'I' for Inactive)
REMARK    1  A    between atoms: C4_4  and  C7_7 
REMARK    2  A    between atoms: C5_5  and  C9_9 
REMARK    3  A    between atoms: C6_6  and  C9_9 
REMARK    4  A    between atoms: C7_7  and  C9_9 
REMARK    5  A    between atoms: C8_8  and  C9_9 
ROOT
HETATM    1  C9  UNL     1     -33.715   6.798   2.951  1.00 20.00    -0.029 C 
ENDROOT
BRANCH   1   2
HETATM    2  C5  UNL     1     -33.690   5.503   2.074  1.00 20.00     0.006 C 
HETATM    3  C2  UNL     1     -33.498   4.186   2.818  1.00 20.00     0.006 C 
ENDBRANCH   1   2
BRANCH   1   4
HETATM    4  C6  UNL     1     -32.375   6.968   3.736  1.00 20.00     0.006 C 
HETATM    5  C3  UNL     1     -32.270   8.197   4.632  1.00 20.00     0.006 C 
ENDBRANCH   1   4
BRANCH   1   6
HETATM    6  C7  UNL     1     -33.947   7.994   1.967  1.00 20.00     0.010 C 
BRANCH   6   7
HETATM    7  C4  UNL     1     -32.889   8.187   0.874  1.00 20.00    -0.004 C 
HETATM    8  C1  UNL     1     -33.184   9.425   0.038  1.00 20.00     0.005 C 
ENDBRANCH   6   7
ENDBRANCH   1   6
BRANCH   1   9
HETATM    9  C8  UNL     1     -34.840   6.726   4.026  1.00 20.00     0.124 C 
HETATM   10 CL10 UNL     1     -34.415   5.786   5.479  1.00 20.00    -0.130 Cl
ENDBRANCH   1   9
TORSDOF 5
