REMARK  2 active torsions:
REMARK  status: ('A' for Active; 'I' for Inactive)
REMARK    1  A    between atoms: C1_1  and  C2_2 
REMARK    2  A    between atoms: C1_1  and  C3_3 
ROOT
HETATM    1  C1  UNL     1     -33.909   5.718   4.131  1.00 20.00     0.299 C 
HETATM    2  F4  UNL     1     -34.855   5.009   3.450  1.00 20.00    -0.238 F 
ENDROOT
BRANCH   1   3
HETATM    3  C2  UNL     1     -34.600   6.461   5.252  1.00 20.00     0.392 C 
HETATM    4  F5  UNL     1     -35.161   5.583   6.119  1.00 20.00    -0.211 F 
HETATM    5  F6  UNL     1     -33.682   7.173   5.952  1.00 20.00    -0.211 F 
ENDBRANCH   1   3
BRANCH   1   6
HETATM    6  C3  UNL     1     -33.221   6.641   3.150  1.00 20.00     0.392 C 
HETATM    7  F7  UNL     1     -32.587   5.919   2.195  1.00 20.00    -0.211 F 
HETATM    8  F8  UNL     1     -32.269   7.357   3.798  1.00 20.00    -0.211 F 
ENDBRANCH   1   6
TORSDOF 2
