REMARK  0 active torsions:
REMARK  status: ('A' for Active; 'I' for Inactive)
ROOT
HETATM    1  C1  UNL     1     -34.133   7.021   5.641  1.00 20.00    -0.021 C 
HETATM    2  C2  UNL     1     -33.927   5.908   6.364  1.00 20.00    -0.025 C 
HETATM    3  C3  UNL     1     -33.445   5.871   3.588  1.00 20.00    -0.076 C 
HETATM    4  C4  UNL     1     -32.801   6.265   2.487  1.00 20.00    -0.027 C 
HETATM    5  C5  UNL     1     -33.190   4.591   4.376  1.00 20.00     0.043 C 
HETATM    6  C6  UNL     1     -35.422   5.358   4.687  1.00 20.00     0.022 C 
HETATM    7  C7  UNL     1     -34.599   6.583   4.271  1.00 20.00     0.037 C 
HETATM    8  C8  UNL     1     -34.270   4.727   5.478  1.00 20.00     0.013 C 
HETATM    9  C9  UNL     1     -33.094   7.532   1.753  1.00 20.00     0.036 C 
ENDROOT
TORSDOF 0
