REMARK  3 active torsions:
REMARK  status: ('A' for Active; 'I' for Inactive)
REMARK    1  A    between atoms: C5_5  and  C7_7 
REMARK    2  A    between atoms: C5_5  and  N8_8 
REMARK    3  A    between atoms: C6_6  and  C7_7 
ROOT
HETATM    1  C1  UNL     1     -32.595   7.811   1.588  1.00 20.00     0.157 C 
HETATM    2  N8  UNL     1     -32.563   7.430   2.698  1.00 20.00    -0.275 NA
HETATM    3  S9  UNL     1     -32.634   8.356   0.091  1.00 20.00    -0.055 SA
ENDROOT
BRANCH   2   4
HETATM    4  C5  UNL     1     -32.789   5.992   2.863  1.00 20.00     0.155 C 
BRANCH   4   5
HETATM    5  C7  UNL     1     -34.008   5.728   3.765  1.00 20.00     0.005 C 
HETATM    6  C4  UNL     1     -34.522   4.300   3.532  1.00 20.00     0.012 C 
BRANCH   5   7
HETATM    7  C6  UNL     1     -33.735   6.015   5.272  1.00 20.00    -0.017 C 
HETATM    8  C2  UNL     1     -33.282   7.462   5.508  1.00 20.00     0.010 C 
HETATM    9  C3  UNL     1     -34.965   5.740   6.145  1.00 20.00     0.010 C 
ENDBRANCH   5   7
ENDBRANCH   4   5
ENDBRANCH   2   4
TORSDOF 3
