REMARK  1 active torsions:
REMARK  status: ('A' for Active; 'I' for Inactive)
REMARK    1  A    between atoms: C8_8  and  C9_9 
ROOT
HETATM    1  C1  UNL     1     -33.293   4.306   1.642  1.00 20.00     0.004 C 
HETATM    2  C2  UNL     1     -32.578   5.574   1.169  1.00 20.00     0.005 C 
HETATM    3  C5  UNL     1     -33.449   4.285   3.161  1.00 20.00     0.040 C 
HETATM    4  C6  UNL     1     -33.442   6.827   3.191  1.00 20.00     0.045 C 
HETATM    5  C7  UNL     1     -35.553   5.550   4.047  1.00 20.00     0.207 A 
HETATM    6  C9  UNL     1     -33.289   6.849   1.662  1.00 20.00    -0.008 C 
HETATM    7  C10 UNL     1     -34.102   5.552   3.626  1.00 20.00     0.083 A 
HETATM    8  O11 UNL     1     -34.487   5.536   5.008  1.00 20.00    -0.375 OA
ENDROOT
BRANCH   6   9
HETATM    9  C8  UNL     1     -32.554   8.083   1.212  1.00 20.00    -0.010 A 
HETATM   10  C3  UNL     1     -32.806   8.660  -0.154  1.00 20.00     0.005 A 
HETATM   11  C4  UNL     1     -33.284   9.390   1.071  1.00 20.00     0.005 A 
ENDBRANCH   6   9
TORSDOF 1
