REMARK  1 active torsions:
REMARK  status: ('A' for Active; 'I' for Inactive)
REMARK    1  A    between atoms: C8_8  and  C9_9 
ROOT
HETATM    1  C1  UNL     1     -33.468   4.261   2.866  1.00 20.00     0.004 C 
HETATM    2  C2  UNL     1     -32.694   5.315   2.072  1.00 20.00     0.005 C 
HETATM    3  C5  UNL     1     -33.356   4.498   4.371  1.00 20.00     0.040 C 
HETATM    4  C6  UNL     1     -33.042   6.991   3.937  1.00 20.00     0.045 C 
HETATM    5  C7  UNL     1     -34.316   6.219   6.071  1.00 20.00     0.207 A 
HETATM    6  C9  UNL     1     -33.158   6.739   2.424  1.00 20.00    -0.008 C 
HETATM    7  C10 UNL     1     -33.732   5.909   4.714  1.00 20.00     0.083 A 
HETATM    8  O11 UNL     1     -35.139   6.119   4.898  1.00 20.00    -0.375 OA
ENDROOT
BRANCH   6   9
HETATM    9  C8  UNL     1     -32.377   7.766   1.647  1.00 20.00    -0.010 A 
HETATM   10  C3  UNL     1     -32.800   8.143   0.254  1.00 20.00     0.005 A 
HETATM   11  C4  UNL     1     -32.968   9.123   1.382  1.00 20.00     0.005 A 
ENDBRANCH   6   9
TORSDOF 1
