REMARK  1 active torsions:
REMARK  status: ('A' for Active; 'I' for Inactive)
REMARK    1  A    between atoms: C9_9  and  C10_10 
ROOT
HETATM    1  C1  UNL     1     -33.002   8.492   1.496  1.00 20.00     0.064 C 
HETATM    2  C2  UNL     1     -32.586   8.111   4.578  1.00 20.00     0.002 C 
HETATM    3  C3  UNL     1     -31.555   8.018   3.454  1.00 20.00     0.019 C 
HETATM    4  C4  UNL     1     -33.307   6.785   4.795  1.00 20.00     0.005 C 
HETATM    5  C7  UNL     1     -32.912   6.173   2.372  1.00 20.00     0.024 C 
HETATM    6  C8  UNL     1     -32.144   7.481   2.144  1.00 20.00     0.093 C 
HETATM    7  C10 UNL     1     -33.953   6.269   3.502  1.00 20.00    -0.009 C 
HETATM    8  N11 UNL     1     -33.676   9.287   0.987  1.00 20.00    -0.197 NA
ENDROOT
BRANCH   7   9
HETATM    9  C9  UNL     1     -34.618   4.936   3.731  1.00 20.00    -0.010 A 
HETATM   10  C5  UNL     1     -33.834   3.785   4.298  1.00 20.00     0.005 A 
HETATM   11  C6  UNL     1     -34.891   4.457   5.130  1.00 20.00     0.005 A 
ENDBRANCH   7   9
TORSDOF 1
