REMARK  1 active torsions:
REMARK  status: ('A' for Active; 'I' for Inactive)
REMARK    1  A    between atoms: C10_10  and  C11_11 
ROOT
HETATM    1  C1  UNL     1     -32.529   7.756   2.440  1.00 20.00     0.088 C 
HETATM    2  C2  UNL     1     -33.760   7.217   4.439  1.00 20.00    -0.070 C 
HETATM    3  C3  UNL     1     -32.856   7.975   3.801  1.00 20.00     0.096 C 
HETATM    4  C4  UNL     1     -34.113   7.442   5.881  1.00 20.00     0.035 C 
HETATM    5  C5  UNL     1     -34.445   6.055   3.760  1.00 20.00     0.039 C 
HETATM    6  C6  UNL     1     -33.870   6.190   6.731  1.00 20.00     0.005 C 
HETATM    7  C7  UNL     1     -33.876   4.878   5.939  1.00 20.00     0.005 C 
HETATM    8  C10 UNL     1     -34.809   4.902   4.721  1.00 20.00    -0.007 C 
HETATM    9  N12 UNL     1     -32.257   7.582   1.325  1.00 20.00    -0.192 NA
ENDROOT
BRANCH   8  10
HETATM   10  C11 UNL     1     -36.281   4.953   5.141  1.00 20.00    -0.010 A 
HETATM   11  C8  UNL     1     -37.322   4.333   4.265  1.00 20.00     0.005 A 
HETATM   12  C9  UNL     1     -36.968   3.700   5.582  1.00 20.00     0.005 A 
ENDBRANCH   8  10
TORSDOF 1
