REMARK  1 active torsions:
REMARK  status: ('A' for Active; 'I' for Inactive)
REMARK    1  A    between atoms: C8_8  and  C9_9 
ROOT
HETATM    1  C1  UNL     1     -35.938   5.324   3.694  1.00 20.00     0.085 C 
HETATM    2  C2  UNL     1     -32.488   6.886   4.332  1.00 20.00     0.003 C 
HETATM    3  C3  UNL     1     -32.439   7.753   3.078  1.00 20.00     0.005 C 
HETATM    4  C6  UNL     1     -33.901   6.376   4.611  1.00 20.00     0.041 C 
HETATM    5  C7  UNL     1     -34.433   6.512   2.137  1.00 20.00     0.046 C 
HETATM    6  C9  UNL     1     -33.008   7.024   1.854  1.00 20.00    -0.008 C 
HETATM    7  C10 UNL     1     -34.531   5.653   3.409  1.00 20.00     0.125 C 
HETATM    8  N11 UNL     1     -37.047   5.064   3.918  1.00 20.00    -0.195 NA
HETATM    9 CL12 UNL     1     -33.704   4.076   3.145  1.00 20.00    -0.103 Cl
ENDROOT
BRANCH   6  10
HETATM   10  C8  UNL     1     -32.996   7.923   0.643  1.00 20.00    -0.010 A 
HETATM   11  C4  UNL     1     -33.674   9.265   0.689  1.00 20.00     0.005 A 
HETATM   12  C5  UNL     1     -32.173   9.182   0.644  1.00 20.00     0.005 A 
ENDBRANCH   6  10
TORSDOF 1
