REMARK  1 active torsions:
REMARK  status: ('A' for Active; 'I' for Inactive)
REMARK    1  A    between atoms: C1_1  and  C2_2 
ROOT
HETATM    1  C1  UNL     1     -34.316   6.151   4.310  1.00 20.00     0.401 C 
HETATM    2  F3  UNL     1     -33.799   6.926   5.295  1.00 20.00    -0.210 F 
HETATM    3  F4  UNL     1     -34.626   4.957   4.876  1.00 20.00    -0.210 F 
ENDROOT
BRANCH   1   4
HETATM    4  C2  UNL     1     -33.289   5.936   3.226  1.00 20.00     0.330 C 
HETATM    5  F5  UNL     1     -33.825   5.129   2.272  1.00 20.00    -0.227 F 
HETATM    6 CL6  UNL     1     -32.814   7.473   2.483  1.00 20.00    -0.084 Cl
ENDBRANCH   1   4
TORSDOF 1
