REMARK  2 active torsions:
REMARK  status: ('A' for Active; 'I' for Inactive)
REMARK    1  A    between atoms: C3_3  and  C6_6 
REMARK    2  A    between atoms: C3_3  and  O8_8 
ROOT
HETATM    1  C1  UNL     1     -32.537   8.032   0.513  1.00 20.00     0.013 C 
HETATM    2  C2  UNL     1     -32.807   7.676   1.628  1.00 20.00    -0.103 C 
HETATM    3  C4  UNL     1     -31.944   7.421   3.920  1.00 20.00     0.034 C 
HETATM    4  C6  UNL     1     -33.145   7.243   2.996  1.00 20.00     0.159 C 
ENDROOT
BRANCH   4   5
HETATM    5  C3  UNL     1     -33.601   5.795   3.013  1.00 20.00     0.273 C 
HETATM    6  O7  UNL     1     -33.651   5.061   2.034  1.00 20.00    -0.264 OA
BRANCH   5   7
HETATM    7  O8  UNL     1     -33.941   5.440   4.289  1.00 20.00    -0.326 OA
HETATM    8  C5  UNL     1     -34.389   4.091   4.457  1.00 20.00     0.213 C 
ENDBRANCH   5   7
ENDBRANCH   4   5
TORSDOF 2
