REMARK  1 active torsions:
REMARK  status: ('A' for Active; 'I' for Inactive)
REMARK    1  A    between atoms: C1_1  and  C2_2 
ROOT
HETATM    1  C1  UNL     1     -33.032   6.106   3.324  1.00 20.00     0.385 C 
HETATM    2  F3  UNL     1     -32.715   7.389   3.022  1.00 20.00    -0.212 F 
HETATM    3  F4  UNL     1     -33.314   5.484   2.151  1.00 20.00    -0.212 F 
ENDROOT
BRANCH   1   4
HETATM    4  C2  UNL     1     -34.240   6.051   4.238  1.00 20.00     0.242 C 
HETATM    5 CL5  UNL     1     -34.653   4.364   4.619  1.00 20.00    -0.102 Cl
HETATM    6 CL6  UNL     1     -33.932   6.950   5.744  1.00 20.00    -0.102 Cl
ENDBRANCH   1   4
TORSDOF 1
