REMARK  0 active torsions:
REMARK  status: ('A' for Active; 'I' for Inactive)
ROOT
HETATM    1  C1  UNL     1     -32.910   7.289   3.383  1.00 20.00     0.005 C 
HETATM    2  C2  UNL     1     -32.714   6.428   2.137  1.00 20.00     0.026 C 
HETATM    3  C3  UNL     1     -33.038   6.419   4.632  1.00 20.00     0.042 C 
HETATM    4  C4  UNL     1     -34.427   4.512   5.685  1.00 20.00     0.309 C 
HETATM    5  C5  UNL     1     -35.604   5.871   4.632  1.00 20.00     0.309 C 
HETATM    6  C6  UNL     1     -33.819   5.386   2.023  1.00 20.00     0.169 C 
HETATM    7  C7  UNL     1     -34.147   5.381   4.434  1.00 20.00     0.113 C 
HETATM    8  N8  UNL     1     -35.561   5.391   6.026  1.00 20.00     0.089 N 
HETATM    9  O9  UNL     1     -33.896   4.622   3.225  1.00 20.00    -0.377 OA
HETATM   10  H22 UNL     1     -36.398   4.874   6.295  1.00 20.00     0.316 HD
ENDROOT
TORSDOF 0
