REMARK  0 active torsions:
REMARK  status: ('A' for Active; 'I' for Inactive)
ROOT
HETATM    1  C1  UNL     1     -34.343   5.316   4.149  1.00 20.00     0.127 C 
HETATM    2  C2  UNL     1     -34.474   6.792   4.456  1.00 20.00     0.079 C 
HETATM    3  C3  UNL     1     -33.930   4.955   2.740  1.00 20.00     0.079 C 
HETATM    4  C4  UNL     1     -33.219   7.538   4.021  1.00 20.00     0.017 C 
HETATM    5  C5  UNL     1     -32.694   5.743   2.322  1.00 20.00     0.017 C 
HETATM    6  C6  UNL     1     -32.569   8.306   0.696  1.00 20.00     0.002 C 
HETATM    7  C7  UNL     1     -31.747   8.127   1.986  1.00 20.00     0.009 C 
HETATM    8  C8  UNL     1     -33.829   7.971   1.515  1.00 20.00     0.009 C 
HETATM    9  C9  UNL     1     -32.907   7.248   2.548  1.00 20.00    -0.040 C 
HETATM   10  O10 UNL     1     -34.657   4.456   4.971  1.00 20.00    -0.298 OA
ENDROOT
TORSDOF 0
