REMARK  1 active torsions:
REMARK  status: ('A' for Active; 'I' for Inactive)
REMARK    1  A    between atoms: C7_7  and  C10_10 
ROOT
HETATM    1  C1  UNL     1     -34.171   6.156   5.102  1.00 20.00     0.127 C 
HETATM    2  C2  UNL     1     -34.709   4.961   4.350  1.00 20.00     0.078 C 
HETATM    3  C3  UNL     1     -33.784   7.385   4.308  1.00 20.00     0.079 C 
HETATM    4  C4  UNL     1     -33.783   4.460   3.247  1.00 20.00     0.008 C 
HETATM    5  C5  UNL     1     -32.483   7.147   3.556  1.00 20.00     0.012 C 
HETATM    6  C6  UNL     1     -33.716   5.413   2.053  1.00 20.00     0.005 C 
HETATM    7  C7  UNL     1     -32.649   6.516   2.162  1.00 20.00    -0.011 C 
HETATM    8  O11 UNL     1     -34.090   6.146   6.332  1.00 20.00    -0.298 OA
ENDROOT
BRANCH   7   9
HETATM    9  C10 UNL     1     -32.919   7.594   1.105  1.00 20.00    -0.019 C 
HETATM   10  C8  UNL     1     -33.891   8.637   1.647  1.00 20.00     0.010 C 
HETATM   11  C9  UNL     1     -31.613   8.245   0.666  1.00 20.00     0.010 C 
ENDBRANCH   7   9
TORSDOF 1
