REMARK  1 active torsions:
REMARK  status: ('A' for Active; 'I' for Inactive)
REMARK    1  A    between atoms: C6_6  and  O8_8 
ROOT
HETATM    1  C1  UNL     1     -32.631   7.310   1.628  1.00 20.00     0.064 C 
HETATM    2  C2  UNL     1     -32.557   7.180   4.103  1.00 20.00     0.022 C 
HETATM    3  C3  UNL     1     -33.967   6.847   4.565  1.00 20.00     0.033 C 
HETATM    4  C4  UNL     1     -33.430   5.287   2.819  1.00 20.00     0.051 C 
HETATM    5  C5  UNL     1     -32.394   6.423   2.779  1.00 20.00     0.095 C 
HETATM    6  C6  UNL     1     -34.103   5.382   4.187  1.00 20.00     0.119 C 
HETATM    7  N7  UNL     1     -32.818   8.009   0.721  1.00 20.00    -0.197 NA
ENDROOT
BRANCH   6   8
HETATM    8  O8  UNL     1     -35.458   4.983   4.115  1.00 20.00    -0.396 OA
HETATM    9  H17 UNL     1     -35.460   4.044   3.871  1.00 20.00     0.210 HD
ENDBRANCH   6   8
TORSDOF 1
