REMARK  0 active torsions:
REMARK  status: ('A' for Active; 'I' for Inactive)
ROOT
HETATM    1  C1  UNL     1     -33.029   5.864   2.226  1.00 20.00     0.013 C 
HETATM    2  C2  UNL     1     -34.252   4.993   2.630  1.00 20.00     0.080 C 
HETATM    3  C3  UNL     1     -31.860   7.726   3.753  1.00 20.00     0.274 C 
HETATM    4  C4  UNL     1     -33.338   7.198   5.587  1.00 20.00     0.280 C 
HETATM    5  C5  UNL     1     -32.544   6.400   3.556  1.00 20.00     0.025 C 
HETATM    6  C6  UNL     1     -33.847   6.644   4.285  1.00 20.00     0.092 C 
HETATM    7  C7  UNL     1     -34.523   5.312   4.111  1.00 20.00     0.249 C 
HETATM    8  N8  UNL     1     -32.242   8.102   5.141  1.00 20.00     0.084 N 
HETATM    9  F9  UNL     1     -35.834   5.356   4.395  1.00 20.00    -0.206 F 
HETATM   10  F10 UNL     1     -33.954   4.372   4.898  1.00 20.00    -0.206 F 
HETATM   11  H21 UNL     1     -31.443   7.982   5.763  1.00 20.00     0.315 HD
ENDROOT
TORSDOF 0
