REMARK  1 active torsions:
REMARK  status: ('A' for Active; 'I' for Inactive)
REMARK    1  A    between atoms: C7_7  and  C10_10 
ROOT
HETATM    1  C1  UNL     1     -33.982   4.408   3.341  1.00 20.00     0.127 C 
HETATM    2  C2  UNL     1     -34.986   5.530   3.491  1.00 20.00     0.078 C 
HETATM    3  C3  UNL     1     -32.898   4.528   2.281  1.00 20.00     0.079 C 
HETATM    4  C4  UNL     1     -34.389   6.799   4.087  1.00 20.00     0.008 C 
HETATM    5  C5  UNL     1     -32.932   5.826   1.480  1.00 20.00     0.012 C 
HETATM    6  C6  UNL     1     -32.921   7.078   3.762  1.00 20.00     0.005 C 
HETATM    7  C7  UNL     1     -32.533   7.084   2.275  1.00 20.00    -0.011 C 
HETATM    8  O11 UNL     1     -34.040   3.409   4.061  1.00 20.00    -0.298 OA
ENDROOT
BRANCH   7   9
HETATM    9  C10 UNL     1     -33.059   8.336   1.568  1.00 20.00    -0.019 C 
HETATM   10  C8  UNL     1     -32.699   9.585   2.365  1.00 20.00     0.010 C 
HETATM   11  C9  UNL     1     -32.503   8.418   0.150  1.00 20.00     0.010 C 
ENDBRANCH   7   9
TORSDOF 1
