REMARK  2 active torsions:
REMARK  status: ('A' for Active; 'I' for Inactive)
REMARK    1  A    between atoms: C5_5  and  C6_6 
REMARK    2  A    between atoms: C6_6  and  C7_7 
ROOT
HETATM    1  C1  UNL     1     -32.661   7.772   0.615  1.00 20.00     0.012 C 
HETATM    2  C2  UNL     1     -32.694   7.541   1.793  1.00 20.00    -0.117 C 
HETATM    3  C5  UNL     1     -32.727   7.261   3.238  1.00 20.00     0.098 C 
ENDROOT
BRANCH   3   4
HETATM    4  C6  UNL     1     -33.856   6.276   3.615  1.00 20.00     0.011 C 
HETATM    5  C3  UNL     1     -33.723   4.962   2.829  1.00 20.00     0.012 C 
BRANCH   4   6
HETATM    6  C7  UNL     1     -33.913   6.075   5.153  1.00 20.00     0.082 C 
HETATM    7  C4  UNL     1     -34.036   7.383   5.929  1.00 20.00     0.027 C 
HETATM    8 CL8  UNL     1     -35.244   4.981   5.645  1.00 20.00    -0.125 Cl
ENDBRANCH   4   6
ENDBRANCH   3   4
TORSDOF 2
