REMARK  2 active torsions:
REMARK  status: ('A' for Active; 'I' for Inactive)
REMARK    1  A    between atoms: C2_2  and  C9_9 
REMARK    2  A    between atoms: C6_6  and  C9_9 
ROOT
HETATM    1  C3  UNL     1     -34.579   4.201   4.525  1.00 20.00     0.002 C 
HETATM    2  C4  UNL     1     -33.674   4.895   3.502  1.00 20.00     0.006 C 
HETATM    3  C5  UNL     1     -35.370   5.312   5.218  1.00 20.00     0.020 C 
HETATM    4  C6  UNL     1     -34.036   6.381   3.574  1.00 20.00     0.008 C 
HETATM    5  C7  UNL     1     -34.539   6.575   5.009  1.00 20.00     0.086 C 
HETATM    6 CL10 UNL     1     -33.225   6.642   6.222  1.00 20.00    -0.125 Cl
ENDROOT
BRANCH   4   7
HETATM    7  C9  UNL     1     -32.930   7.293   3.140  1.00 20.00     0.039 C 
BRANCH   7   8
HETATM    8  C2  UNL     1     -32.810   7.392   1.638  1.00 20.00    -0.093 C 
HETATM    9  C1  UNL     1     -32.532   6.318   0.884  1.00 20.00     0.014 C 
HETATM   10  C8  UNL     1     -32.979   8.754   1.028  1.00 20.00     0.042 C 
ENDBRANCH   7   8
ENDBRANCH   4   7
TORSDOF 2
