REMARK  2 active torsions:
REMARK  status: ('A' for Active; 'I' for Inactive)
REMARK    1  A    between atoms: C5_5  and  C6_6 
REMARK    2  A    between atoms: C6_6  and  C7_7 
ROOT
HETATM    1  C1  UNL     1     -32.524   8.539   0.426  1.00 20.00     0.012 C 
HETATM    2  C2  UNL     1     -32.778   7.605   1.137  1.00 20.00    -0.117 C 
HETATM    3  C5  UNL     1     -33.092   6.457   2.003  1.00 20.00     0.098 C 
ENDROOT
BRANCH   3   4
HETATM    4  C6  UNL     1     -33.245   6.867   3.485  1.00 20.00     0.011 C 
HETATM    5  C3  UNL     1     -31.978   7.575   3.989  1.00 20.00     0.012 C 
BRANCH   4   6
HETATM    6  C7  UNL     1     -33.660   5.654   4.358  1.00 20.00     0.082 C 
HETATM    7  C4  UNL     1     -34.911   4.945   3.848  1.00 20.00     0.027 C 
HETATM    8 CL8  UNL     1     -33.907   6.099   6.077  1.00 20.00    -0.125 Cl
ENDBRANCH   4   6
ENDBRANCH   3   4
TORSDOF 2
