REMARK  3 active torsions:
REMARK  status: ('A' for Active; 'I' for Inactive)
REMARK    1  A    between atoms: C2_2  and  C6_6 
REMARK    2  A    between atoms: C6_6  and  C7_7 
REMARK    3  A    between atoms: C7_7  and  C8_8 
ROOT
HETATM    1  C4  UNL     1     -32.575   4.746   2.170  1.00 20.00     0.011 C 
HETATM    2  C7  UNL     1     -33.220   6.139   2.108  1.00 20.00    -0.001 C 
ENDROOT
BRANCH   2   3
HETATM    3  C6  UNL     1     -32.278   7.180   1.454  1.00 20.00     0.038 C 
BRANCH   3   4
HETATM    4  C2  UNL     1     -32.984   8.373   0.842  1.00 20.00    -0.093 C 
HETATM    5  C1  UNL     1     -32.834   8.686  -0.455  1.00 20.00     0.014 C 
HETATM    6  C3  UNL     1     -33.892   9.165   1.737  1.00 20.00     0.042 C 
ENDBRANCH   3   4
ENDBRANCH   2   3
BRANCH   2   7
HETATM    7  C8  UNL     1     -33.762   6.574   3.490  1.00 20.00     0.057 C 
HETATM    8  C5  UNL     1     -34.406   5.444   4.284  1.00 20.00     0.022 C 
HETATM    9 BR9  UNL     1     -32.380   7.397   4.613  1.00 20.00    -0.091 Br
ENDBRANCH   2   7
TORSDOF 3
