REMARK  3 active torsions:
REMARK  status: ('A' for Active; 'I' for Inactive)
REMARK    1  A    between atoms: C1_1  and  C3_3 
REMARK       I    between atoms: C3_3  and  N10_10 
REMARK    2  A    between atoms: C8_8  and  C9_9 
REMARK    3  A    between atoms: C8_8  and  N10_10 
ROOT
HETATM    1  C3  UNL     1     -32.104   7.161   2.882  1.00 20.00     0.240 C 
HETATM    2  N10 UNL     1     -32.875   6.006   2.880  1.00 20.00    -0.357 N 
HETATM    3  O11 UNL     1     -31.565   7.653   3.868  1.00 20.00    -0.269 OA
HETATM    4  H28 UNL     1     -33.303   5.693   2.010  1.00 20.00     0.162 HD
ENDROOT
BRANCH   2   5
HETATM    5  C8  UNL     1     -33.135   5.235   4.066  1.00 20.00     0.131 C 
BRANCH   5   6
HETATM    6  C9  UNL     1     -34.404   5.663   4.836  1.00 20.00    -0.035 C 
HETATM    7  C5  UNL     1     -34.594   4.802   6.096  1.00 20.00     0.016 C 
HETATM    8  C6  UNL     1     -34.330   7.146   5.238  1.00 20.00     0.016 C 
HETATM    9  C7  UNL     1     -35.620   5.465   3.913  1.00 20.00     0.016 C 
ENDBRANCH   5   6
ENDBRANCH   2   5
BRANCH   1  10
HETATM   10  C1  UNL     1     -31.997   7.764   1.525  1.00 20.00     0.070 C 
HETATM   11  C2  UNL     1     -33.097   8.160   0.872  1.00 20.00    -0.026 C 
HETATM   12  C4  UNL     1     -33.068   8.773  -0.490  1.00 20.00     0.036 C 
ENDBRANCH   1  10
TORSDOF 3
