REMARK  2 active torsions:
REMARK  status: ('A' for Active; 'I' for Inactive)
REMARK    1  A    between atoms: C2_2  and  C7_7 
REMARK    2  A    between atoms: C7_7  and  C8_8 
ROOT
HETATM    1  C7  UNL     1     -34.276   6.635   3.882  1.00 20.00     0.035 C 
ENDROOT
BRANCH   1   2
HETATM    2  C2  UNL     1     -33.660   7.112   5.170  1.00 20.00    -0.030 C 
HETATM    3  C1  UNL     1     -33.607   6.375   6.289  1.00 20.00    -0.035 C 
HETATM    4  C3  UNL     1     -34.152   4.990   6.398  1.00 20.00     0.035 C 
ENDBRANCH   1   2
BRANCH   1   5
HETATM    5  C8  UNL     1     -33.298   6.505   2.683  1.00 20.00    -0.048 C 
HETATM    6  C4  UNL     1     -33.775   7.337   1.479  1.00 20.00     0.014 C 
HETATM    7  C5  UNL     1     -33.145   5.035   2.253  1.00 20.00     0.014 C 
HETATM    8  C6  UNL     1     -31.919   7.033   3.124  1.00 20.00     0.014 C 
ENDBRANCH   1   5
TORSDOF 2
