REMARK  2 active torsions:
REMARK  status: ('A' for Active; 'I' for Inactive)
REMARK    1  A    between atoms: C5_5  and  N8_8 
REMARK    2  A    between atoms: C6_6  and  N8_8 
ROOT
HETATM    1  N8  UNL     1     -33.939   7.111   2.086  1.00 20.00     0.097 N 
HETATM    2  H22 UNL     1     -34.800   7.508   2.453  1.00 20.00     0.317 HD
ENDROOT
BRANCH   1   3
HETATM    3  C5  UNL     1     -33.341   6.253   3.114  1.00 20.00     0.225 A 
HETATM    4  C1  UNL     1     -33.354   6.673   4.561  1.00 20.00     0.042 A 
HETATM    5  C4  UNL     1     -34.175   5.493   4.116  1.00 20.00     0.016 A 
HETATM    6  C7  UNL     1     -35.664   5.567   4.137  1.00 20.00     0.012 C 
ENDBRANCH   1   3
BRANCH   1   7
HETATM    7  C6  UNL     1     -33.026   8.179   1.717  1.00 20.00     0.268 C 
HETATM    8  C2  UNL     1     -33.692   9.046   0.649  1.00 20.00     0.205 C 
HETATM    9  O9  UNL     1     -32.968   8.367  -0.408  1.00 20.00    -0.387 OA
HETATM   10  C3  UNL     1     -32.139   7.692   0.572  1.00 20.00     0.205 C 
ENDBRANCH   1   7
TORSDOF 2
