REMARK  4 active torsions:
REMARK  status: ('A' for Active; 'I' for Inactive)
REMARK    1  A    between atoms: C3_3  and  C7_7 
REMARK    2  A    between atoms: C3_3  and  C9_9 
REMARK    3  A    between atoms: C6_6  and  C8_8 
REMARK    4  A    between atoms: C7_7  and  C8_8 
ROOT
HETATM    1  C1  UNL     1     -33.373   9.323  -0.581  1.00 20.00     0.012 C 
HETATM    2  C2  UNL     1     -32.963   8.561   0.251  1.00 20.00    -0.117 C 
HETATM    3  C6  UNL     1     -32.458   7.628   1.268  1.00 20.00     0.093 C 
ENDROOT
BRANCH   3   4
HETATM    4  C8  UNL     1     -33.604   7.012   2.069  1.00 20.00     0.019 C 
BRANCH   4   5
HETATM    5  C7  UNL     1     -33.083   6.074   3.156  1.00 20.00     0.079 C 
BRANCH   5   6
HETATM    6  C3  UNL     1     -34.201   5.480   4.000  1.00 20.00     0.130 C 
HETATM    7  O10 UNL     1     -34.755   4.422   3.702  1.00 20.00    -0.298 OA
BRANCH   6   8
HETATM    8  C9  UNL     1     -34.621   6.287   5.227  1.00 20.00     0.047 C 
HETATM    9  C4  UNL     1     -33.459   7.127   5.751  1.00 20.00     0.017 C 
HETATM   10  C5  UNL     1     -35.145   5.348   6.307  1.00 20.00     0.017 C 
ENDBRANCH   6   8
ENDBRANCH   5   6
ENDBRANCH   4   5
ENDBRANCH   3   4
TORSDOF 4
