REMARK  4 active torsions:
REMARK  status: ('A' for Active; 'I' for Inactive)
REMARK    1  A    between atoms: C3_3  and  C9_9 
REMARK    2  A    between atoms: C6_6  and  C8_8 
REMARK    3  A    between atoms: C7_7  and  C9_9 
REMARK    4  A    between atoms: C8_8  and  C9_9 
ROOT
HETATM    1  C1  UNL     1     -33.705   8.636   0.462  1.00 20.00     0.012 C 
HETATM    2  C2  UNL     1     -32.940   8.061   1.188  1.00 20.00    -0.117 C 
HETATM    3  C6  UNL     1     -32.001   7.360   2.075  1.00 20.00     0.093 C 
ENDROOT
BRANCH   3   4
HETATM    4  C8  UNL     1     -32.593   6.034   2.565  1.00 20.00     0.024 C 
BRANCH   4   5
HETATM    5  C9  UNL     1     -33.941   6.226   3.284  1.00 20.00     0.055 C 
BRANCH   5   6
HETATM    6  C3  UNL     1     -33.756   6.634   4.747  1.00 20.00     0.127 C 
HETATM    7  C4  UNL     1     -34.854   6.248   5.706  1.00 20.00     0.091 C 
HETATM    8  O10 UNL     1     -32.752   7.226   5.146  1.00 20.00    -0.298 OA
ENDBRANCH   5   6
BRANCH   5   9
HETATM    9  C7  UNL     1     -34.841   4.981   3.190  1.00 20.00     0.007 C 
HETATM   10  C5  UNL     1     -34.267   3.724   3.832  1.00 20.00     0.006 C 
ENDBRANCH   5   9
ENDBRANCH   4   5
ENDBRANCH   3   4
TORSDOF 4
