REMARK  0 active torsions:
REMARK  status: ('A' for Active; 'I' for Inactive)
ROOT
HETATM    1  C1  UNL     1     -34.389   7.078   6.389  1.00 20.00     0.002 A 
HETATM    2  C2  UNL     1     -33.447   7.289   5.379  1.00 20.00     0.009 A 
HETATM    3  C3  UNL     1     -35.431   6.153   6.214  1.00 20.00     0.019 A 
HETATM    4  C4  UNL     1     -33.564   6.558   4.208  1.00 20.00    -0.032 A 
HETATM    5  C5  UNL     1     -34.600   5.630   4.038  1.00 20.00    -0.033 A 
HETATM    6  C6  UNL     1     -35.545   5.424   5.029  1.00 20.00     0.017 A 
HETATM    7  C7  UNL     1     -34.534   4.996   2.683  1.00 20.00     0.042 C 
HETATM    8  C8  UNL     1     -33.081   5.308   2.285  1.00 20.00     0.030 C 
HETATM    9  C9  UNL     1     -32.702   6.626   2.985  1.00 20.00     0.116 C 
HETATM   10 CL10 UNL     1     -33.147   8.034   1.998  1.00 20.00    -0.120 Cl
HETATM   11 BR11 UNL     1     -36.975   4.208   4.819  1.00 20.00    -0.051 Br
ENDROOT
TORSDOF 0
