REMARK  3 active torsions:
REMARK  status: ('A' for Active; 'I' for Inactive)
REMARK    1  A    between atoms: C1_1  and  C5_5 
REMARK    2  A    between atoms: C1_1  and  C8_8 
REMARK    3  A    between atoms: C8_8  and  C9_9 
ROOT
HETATM    1  C1  UNL     1     -32.606   7.055   2.954  1.00 20.00     0.133 C 
HETATM    2  O10 UNL     1     -31.720   7.471   3.698  1.00 20.00    -0.297 OA
ENDROOT
BRANCH   1   3
HETATM    3  C5  UNL     1     -33.827   6.404   3.506  1.00 20.00     0.081 C 
HETATM    4  C2  UNL     1     -33.970   4.945   3.119  1.00 20.00     0.040 C 
HETATM    5  C3  UNL     1     -34.924   4.436   4.175  1.00 20.00     0.168 C 
HETATM    6  O11 UNL     1     -34.632   5.167   5.373  1.00 20.00    -0.390 OA
HETATM    7  C4  UNL     1     -33.847   6.319   5.025  1.00 20.00     0.179 C 
ENDBRANCH   1   3
BRANCH   1   8
HETATM    8  C8  UNL     1     -32.514   7.128   1.437  1.00 20.00     0.082 C 
BRANCH   8   9
HETATM    9  C9  UNL     1     -32.456   8.561   0.887  1.00 20.00    -0.016 C 
HETATM   10  C6  UNL     1     -33.701   9.361   1.277  1.00 20.00     0.010 C 
HETATM   11  C7  UNL     1     -32.318   8.532  -0.636  1.00 20.00     0.010 C 
ENDBRANCH   8   9
ENDBRANCH   1   8
TORSDOF 3
