REMARK  4 active torsions:
REMARK  status: ('A' for Active; 'I' for Inactive)
REMARK    1  A    between atoms: C3_3  and  C9_9 
REMARK    2  A    between atoms: C6_6  and  C8_8 
REMARK    3  A    between atoms: C7_7  and  C9_9 
REMARK    4  A    between atoms: C8_8  and  C9_9 
ROOT
HETATM    1  C1  UNL     1     -33.339   9.042   1.064  1.00 20.00     0.012 C 
HETATM    2  C2  UNL     1     -32.745   8.076   1.457  1.00 20.00    -0.117 C 
HETATM    3  C6  UNL     1     -32.017   6.891   1.935  1.00 20.00     0.093 C 
ENDROOT
BRANCH   3   4
HETATM    4  C8  UNL     1     -32.382   6.571   3.389  1.00 20.00     0.024 C 
BRANCH   4   5
HETATM    5  C9  UNL     1     -33.868   6.206   3.551  1.00 20.00     0.055 C 
BRANCH   5   6
HETATM    6  C3  UNL     1     -34.162   4.775   3.096  1.00 20.00     0.127 C 
HETATM    7  C4  UNL     1     -34.487   4.577   1.637  1.00 20.00     0.091 C 
HETATM    8  O10 UNL     1     -34.113   3.815   3.865  1.00 20.00    -0.298 OA
ENDBRANCH   5   6
BRANCH   5   9
HETATM    9  C7  UNL     1     -34.366   6.419   4.992  1.00 20.00     0.007 C 
HETATM   10  C5  UNL     1     -33.667   5.569   6.045  1.00 20.00     0.006 C 
ENDBRANCH   5   9
ENDBRANCH   4   5
ENDBRANCH   3   4
TORSDOF 4
