REMARK  4 active torsions:
REMARK  status: ('A' for Active; 'I' for Inactive)
REMARK    1  A    between atoms: C5_5  and  C9_9 
REMARK    2  A    between atoms: C7_7  and  C8_8 
REMARK    3  A    between atoms: C8_8  and  C9_9 
REMARK    4  A    between atoms: C9_9  and  O10_10 
ROOT
HETATM    1  C1  UNL     1     -33.077   8.352  -0.185  1.00 20.00     0.012 C 
HETATM    2  C2  UNL     1     -32.712   7.984   0.898  1.00 20.00    -0.117 C 
HETATM    3  C7  UNL     1     -32.261   7.533   2.224  1.00 20.00     0.096 C 
ENDROOT
BRANCH   3   4
HETATM    4  C8  UNL     1     -33.457   7.183   3.119  1.00 20.00     0.050 C 
BRANCH   4   5
HETATM    5  C9  UNL     1     -33.076   6.675   4.527  1.00 20.00     0.059 C 
HETATM    6  C6  UNL     1     -32.183   5.460   4.470  1.00 20.00     0.046 C 
BRANCH   5   7
HETATM    7  C5  UNL     1     -34.354   6.352   5.313  1.00 20.00     0.019 A 
HETATM    8  C3  UNL     1     -34.976   4.986   5.219  1.00 20.00     0.008 A 
HETATM    9  C4  UNL     1     -34.302   5.420   6.491  1.00 20.00     0.008 A 
ENDBRANCH   5   7
BRANCH   5  10
HETATM   10  O10 UNL     1     -32.392   7.724   5.217  1.00 20.00    -0.390 OA
HETATM   11  H24 UNL     1     -32.194   7.383   6.102  1.00 20.00     0.210 HD
ENDBRANCH   5  10
ENDBRANCH   4   5
ENDBRANCH   3   4
TORSDOF 4
