REMARK  2 active torsions:
REMARK  status: ('A' for Active; 'I' for Inactive)
REMARK    1  A    between atoms: C8_8  and  C9_9 
REMARK    2  A    between atoms: C8_8  and  N10_10 
ROOT
HETATM    1  C1  UNL     1     -34.998   4.867   3.796  1.00 20.00     0.032 C 
HETATM    2  C2  UNL     1     -34.649   5.616   5.079  1.00 20.00     0.024 C 
HETATM    3  C3  UNL     1     -33.780   4.747   2.875  1.00 20.00     0.272 C 
HETATM    4  C4  UNL     1     -32.789   6.757   3.807  1.00 20.00     0.292 C 
HETATM    5  C5  UNL     1     -33.981   6.950   4.752  1.00 20.00     0.110 C 
HETATM    6  N10 UNL     1     -33.122   6.025   2.576  1.00 20.00     0.090 N 
HETATM    7 CL11 UNL     1     -33.439   7.740   6.261  1.00 20.00    -0.123 Cl
ENDROOT
BRANCH   6   8
HETATM    8  C8  UNL     1     -33.893   6.839   1.639  1.00 20.00     0.276 C 
BRANCH   8   9
HETATM    9  C9  UNL     1     -33.012   7.865   0.917  1.00 20.00     0.006 C 
HETATM   10  C6  UNL     1     -31.893   7.205   0.111  1.00 20.00     0.011 C 
HETATM   11  C7  UNL     1     -33.832   8.804   0.031  1.00 20.00     0.011 C 
ENDBRANCH   8   9
ENDBRANCH   6   8
TORSDOF 2
