REMARK  2 active torsions:
REMARK  status: ('A' for Active; 'I' for Inactive)
REMARK    1  A    between atoms: C5_5  and  N8_8 
REMARK    2  A    between atoms: C6_6  and  N8_8 
ROOT
HETATM    1  N8  UNL     1     -33.586   7.032   2.016  1.00 20.00     0.097 N 
HETATM    2  H22 UNL     1     -32.969   6.224   2.004  1.00 20.00     0.317 HD
ENDROOT
BRANCH   1   3
HETATM    3  C5  UNL     1     -34.266   7.086   3.313  1.00 20.00     0.225 A 
HETATM    4  C1  UNL     1     -33.508   6.758   4.574  1.00 20.00     0.042 A 
HETATM    5  C4  UNL     1     -34.590   5.832   4.088  1.00 20.00     0.016 A 
HETATM    6  C7  UNL     1     -34.240   4.474   3.582  1.00 20.00     0.012 C 
ENDBRANCH   1   3
BRANCH   1   7
HETATM    7  C6  UNL     1     -32.811   8.242   1.793  1.00 20.00     0.268 C 
HETATM    8  C2  UNL     1     -33.754   9.347   1.321  1.00 20.00     0.205 C 
HETATM    9  O9  UNL     1     -33.384   9.125  -0.063  1.00 20.00    -0.387 OA
HETATM   10  C3  UNL     1     -32.310   8.243   0.350  1.00 20.00     0.205 C 
ENDBRANCH   1   7
TORSDOF 2
