REMARK  0 active torsions:
REMARK  status: ('A' for Active; 'I' for Inactive)
ROOT
HETATM    1  C1  UNL     1     -35.939   5.694   3.777  1.00 20.00     0.101 C 
HETATM    2  C2  UNL     1     -33.257   6.030   2.217  1.00 20.00     0.005 C 
HETATM    3  C3  UNL     1     -32.827   4.568   2.214  1.00 20.00     0.030 C 
HETATM    4  C4  UNL     1     -33.585   6.487   3.639  1.00 20.00     0.057 C 
HETATM    5  C5  UNL     1     -33.858   3.691   2.918  1.00 20.00     0.272 C 
HETATM    6  C6  UNL     1     -34.584   5.549   4.353  1.00 20.00     0.240 C 
HETATM    7  C7  UNL     1     -34.660   5.939   5.840  1.00 20.00     0.066 C 
HETATM    8  N8  UNL     1     -37.002   5.809   3.326  1.00 20.00    -0.195 NA
HETATM    9  N9  UNL     1     -34.132   4.146   4.284  1.00 20.00     0.106 N 
HETATM   10  H21 UNL     1     -34.817   3.532   4.724  1.00 20.00     0.318 HD
ENDROOT
TORSDOF 0
