REMARK  2 active torsions:
REMARK  status: ('A' for Active; 'I' for Inactive)
REMARK    1  A    between atoms: C7_7  and  C9_9 
REMARK    2  A    between atoms: C8_8  and  C9_9 
ROOT
HETATM    1  C1  UNL     1     -33.392   9.514   1.012  1.00 20.00     0.012 C 
HETATM    2  C2  UNL     1     -32.749   8.537   1.283  1.00 20.00    -0.117 C 
HETATM    3  C8  UNL     1     -31.961   7.341   1.609  1.00 20.00     0.093 C 
ENDROOT
BRANCH   3   4
HETATM    4  C9  UNL     1     -31.939   7.108   3.112  1.00 20.00     0.024 C 
BRANCH   4   5
HETATM    5  C7  UNL     1     -33.340   6.915   3.657  1.00 20.00     0.056 C 
HETATM    6  C3  UNL     1     -33.857   5.503   3.477  1.00 20.00     0.131 C 
HETATM    7  C4  UNL     1     -34.530   4.984   4.723  1.00 20.00     0.079 C 
HETATM    8  O10 UNL     1     -33.745   4.851   2.447  1.00 20.00    -0.298 OA
HETATM    9  C5  UNL     1     -34.632   6.244   5.575  1.00 20.00     0.008 C 
HETATM   10  C6  UNL     1     -33.416   7.070   5.178  1.00 20.00     0.013 C 
ENDBRANCH   4   5
ENDBRANCH   3   4
TORSDOF 2
