REMARK  3 active torsions:
REMARK  status: ('A' for Active; 'I' for Inactive)
REMARK    1  A    between atoms: C4_4  and  C9_9 
REMARK    2  A    between atoms: C5_5  and  C10_10 
REMARK    3  A    between atoms: C9_9  and  C11_11 
ROOT
HETATM    1  C1  UNL     1     -31.917   7.596   3.489  1.00 20.00     0.006 C 
HETATM    2  C2  UNL     1     -32.973   7.682   4.588  1.00 20.00     0.021 C 
HETATM    3  C3  UNL     1     -32.830   5.353   2.780  1.00 20.00     0.010 C 
HETATM    4  C4  UNL     1     -32.360   6.734   2.302  1.00 20.00    -0.014 C 
HETATM    5  C5  UNL     1     -33.901   5.414   3.886  1.00 20.00     0.004 C 
HETATM    6  C6  UNL     1     -33.418   6.294   5.056  1.00 20.00     0.086 C 
HETATM    7 CL12 UNL     1     -34.698   6.493   6.294  1.00 20.00    -0.125 Cl
ENDROOT
BRANCH   4   8
HETATM    8  C9  UNL     1     -33.426   7.435   1.455  1.00 20.00     0.004 C 
BRANCH   8   9
HETATM    9  C11 UNL     1     -32.917   8.770   0.923  1.00 20.00    -0.004 C 
HETATM   10  C8  UNL     1     -33.966   9.454   0.062  1.00 20.00     0.005 C 
ENDBRANCH   8   9
ENDBRANCH   4   8
BRANCH   5  11
HETATM   11  C10 UNL     1     -34.244   3.988   4.332  1.00 20.00     0.001 C 
HETATM   12  C7  UNL     1     -33.066   3.311   4.946  1.00 20.00     0.005 C 
ENDBRANCH   5  11
TORSDOF 3
