REMARK  4 active torsions:
REMARK  status: ('A' for Active; 'I' for Inactive)
REMARK    1  A    between atoms: C4_4  and  C8_8 
REMARK    2  A    between atoms: C8_8  and  C11_11 
REMARK    3  A    between atoms: C9_9  and  C10_10 
REMARK    4  A    between atoms: C10_10  and  C11_11 
ROOT
HETATM    1  C1  UNL     1     -34.155   7.196   6.110  1.00 20.00     0.002 C 
HETATM    2  C2  UNL     1     -33.953   7.564   4.638  1.00 20.00     0.006 C 
HETATM    3  C3  UNL     1     -34.113   5.670   6.182  1.00 20.00     0.020 C 
HETATM    4  C4  UNL     1     -33.602   6.252   3.929  1.00 20.00     0.004 C 
HETATM    5  C5  UNL     1     -34.372   5.219   4.751  1.00 20.00     0.086 C 
HETATM    6 CL12 UNL     1     -33.820   3.559   4.470  1.00 20.00    -0.125 Cl
ENDROOT
BRANCH   4   7
HETATM    7  C8  UNL     1     -33.965   6.267   2.452  1.00 20.00     0.010 C 
BRANCH   7   8
HETATM    8  C11 UNL     1     -32.994   7.088   1.584  1.00 20.00    -0.018 C 
HETATM    9  C7  UNL     1     -31.604   6.443   1.612  1.00 20.00     0.010 C 
BRANCH   8  10
HETATM   10  C10 UNL     1     -32.924   8.587   1.943  1.00 20.00     0.004 C 
BRANCH  10  11
HETATM   11  C9  UNL     1     -32.560   9.519   0.784  1.00 20.00    -0.004 C 
HETATM   12  C6  UNL     1     -33.532   9.361  -0.377  1.00 20.00     0.005 C 
ENDBRANCH  10  11
ENDBRANCH   8  10
ENDBRANCH   7   8
ENDBRANCH   4   7
TORSDOF 4
