REMARK  4 active torsions:
REMARK  status: ('A' for Active; 'I' for Inactive)
REMARK    1  A    between atoms: C3_3  and  C6_6 
REMARK    2  A    between atoms: C3_3  and  C7_7 
REMARK    3  A    between atoms: C5_5  and  C8_8 
REMARK    4  A    between atoms: C7_7  and  C8_8 
ROOT
HETATM    1  C1  UNL     1     -33.137   9.130  -1.655  1.00 20.00     0.012 C 
HETATM    2  C2  UNL     1     -33.297   8.745  -0.528  1.00 20.00    -0.117 C 
HETATM    3  C5  UNL     1     -33.496   8.276   0.850  1.00 20.00     0.093 C 
ENDROOT
BRANCH   3   4
HETATM    4  C8  UNL     1     -32.196   7.716   1.433  1.00 20.00     0.019 C 
BRANCH   4   5
HETATM    5  C7  UNL     1     -32.366   7.222   2.869  1.00 20.00     0.079 C 
BRANCH   5   6
HETATM    6  C3  UNL     1     -33.385   6.101   3.019  1.00 20.00     0.126 C 
HETATM    7  O9  UNL     1     -33.586   5.273   2.133  1.00 20.00    -0.298 OA
BRANCH   6   8
HETATM    8  C6  UNL     1     -34.162   6.094   4.326  1.00 20.00     0.074 C 
HETATM    9  C4  UNL     1     -35.137   4.934   4.422  1.00 20.00     0.013 C 
ENDBRANCH   6   8
ENDBRANCH   5   6
ENDBRANCH   4   5
ENDBRANCH   3   4
TORSDOF 4
