REMARK  2 active torsions:
REMARK  status: ('A' for Active; 'I' for Inactive)
REMARK    1  A    between atoms: C7_7  and  C9_9 
REMARK    2  A    between atoms: C8_8  and  C9_9 
ROOT
HETATM    1  C1  UNL     1     -33.544   9.411   0.847  1.00 20.00     0.012 C 
HETATM    2  C2  UNL     1     -32.959   8.417   1.181  1.00 20.00    -0.117 C 
HETATM    3  C8  UNL     1     -32.242   7.201   1.587  1.00 20.00     0.093 C 
ENDROOT
BRANCH   3   4
HETATM    4  C9  UNL     1     -32.374   6.976   3.085  1.00 20.00     0.024 C 
BRANCH   4   5
HETATM    5  C7  UNL     1     -33.826   6.827   3.491  1.00 20.00     0.056 C 
HETATM    6  C3  UNL     1     -34.008   6.646   4.985  1.00 20.00     0.131 C 
HETATM    7  C4  UNL     1     -34.992   5.550   5.306  1.00 20.00     0.079 C 
HETATM    8  O10 UNL     1     -33.428   7.306   5.838  1.00 20.00    -0.298 OA
HETATM    9  C5  UNL     1     -35.596   5.257   3.938  1.00 20.00     0.008 C 
HETATM   10  C6  UNL     1     -34.468   5.546   2.955  1.00 20.00     0.013 C 
ENDBRANCH   4   5
ENDBRANCH   3   4
TORSDOF 2
