REMARK  2 active torsions:
REMARK  status: ('A' for Active; 'I' for Inactive)
REMARK    1  A    between atoms: C1_1  and  C6_6 
REMARK    2  A    between atoms: C1_1  and  C8_8 
ROOT
HETATM    1  C2  UNL     1     -33.826   6.102   6.384  1.00 20.00     0.027 C 
HETATM    2  C3  UNL     1     -33.007   6.481   5.159  1.00 20.00     0.016 C 
HETATM    3  C4  UNL     1     -34.712   4.890   6.101  1.00 20.00     0.167 C 
HETATM    4  C5  UNL     1     -35.250   5.991   4.062  1.00 20.00     0.179 C 
HETATM    5  C6  UNL     1     -33.923   6.747   3.960  1.00 20.00     0.079 C 
HETATM    6  O10 UNL     1     -35.057   4.743   4.723  1.00 20.00    -0.390 OA
ENDROOT
BRANCH   5   7
HETATM    7  C1  UNL     1     -33.207   6.347   2.704  1.00 20.00     0.132 C 
HETATM    8  O9  UNL     1     -33.328   5.216   2.238  1.00 20.00    -0.298 OA
BRANCH   7   9
HETATM    9  C8  UNL     1     -32.340   7.414   2.061  1.00 20.00     0.074 C 
HETATM   10  C7  UNL     1     -33.092   8.236   1.031  1.00 20.00     0.013 C 
ENDBRANCH   7   9
ENDBRANCH   5   7
TORSDOF 2
