REMARK  2 active torsions:
REMARK  status: ('A' for Active; 'I' for Inactive)
REMARK    1  A    between atoms: C6_6  and  C7_7 
REMARK    2  A    between atoms: C7_7  and  N9_9 
ROOT
HETATM    1  C1  UNL     1     -32.521   9.016   0.358  1.00 20.00     0.012 C 
HETATM    2  C2  UNL     1     -33.141   8.355   1.145  1.00 20.00    -0.116 C 
HETATM    3  C6  UNL     1     -33.905   7.548   2.108  1.00 20.00     0.113 C 
ENDROOT
BRANCH   3   4
HETATM    4  C7  UNL     1     -33.045   7.075   3.281  1.00 20.00     0.141 C 
BRANCH   4   5
HETATM    5  N9  UNL     1     -33.775   6.258   4.246  1.00 20.00    -0.349 N 
HETATM    6  C4  UNL     1     -34.224   6.661   5.472  1.00 20.00     0.111 A 
HETATM    7  C3  UNL     1     -34.843   5.554   6.002  1.00 20.00     0.135 A 
HETATM    8  N8  UNL     1     -34.784   4.491   5.136  1.00 20.00    -0.255 NA
HETATM    9  C5  UNL     1     -34.135   4.949   4.088  1.00 20.00     0.209 A 
ENDBRANCH   4   5
ENDBRANCH   3   4
TORSDOF 2
