REMARK  2 active torsions:
REMARK  status: ('A' for Active; 'I' for Inactive)
REMARK    1  A    between atoms: C1_1  and  C7_7 
REMARK    2  A    between atoms: C7_7  and  S10_10 
ROOT
HETATM    1  C1  UNL     1     -33.659   6.264   3.806  1.00 20.00     0.061 A 
HETATM    2  C2  UNL     1     -33.643   5.048   3.154  1.00 20.00     0.006 A 
HETATM    3  C3  UNL     1     -32.875   6.936   1.871  1.00 20.00     0.072 A 
HETATM    4  C4  UNL     1     -34.037   3.707   3.632  1.00 20.00     0.058 C 
HETATM    5  C5  UNL     1     -32.353   7.816   0.802  1.00 20.00     0.078 C 
HETATM    6  N8  UNL     1     -33.219   7.348   3.071  1.00 20.00    -0.249 NA
HETATM    7  S9  UNL     1     -33.057   5.259   1.556  1.00 20.00    -0.078 SA
ENDROOT
BRANCH   1   8
HETATM    8  C7  UNL     1     -34.107   6.504   5.234  1.00 20.00     0.093 C 
HETATM    9  C6  UNL     1     -34.010   7.973   5.645  1.00 20.00     0.028 C 
BRANCH   8  10
HETATM   10  S10 UNL     1     -33.159   5.469   6.405  1.00 20.00    -0.172 SA
HETATM   11  H21 UNL     1     -33.781   5.914   7.503  1.00 20.00     0.102 HD
ENDBRANCH   8  10
ENDBRANCH   1   8
TORSDOF 2
