REMARK  2 active torsions:
REMARK  status: ('A' for Active; 'I' for Inactive)
REMARK    1  A    between atoms: C1_1  and  C7_7 
REMARK    2  A    between atoms: C7_7  and  S10_10 
ROOT
HETATM    1  C1  UNL     1     -33.287   7.088   2.935  1.00 20.00     0.061 A 
HETATM    2  C2  UNL     1     -33.523   5.765   2.624  1.00 20.00     0.006 A 
HETATM    3  C3  UNL     1     -34.088   6.432   4.869  1.00 20.00     0.072 A 
HETATM    4  C4  UNL     1     -33.300   5.030   1.363  1.00 20.00     0.058 C 
HETATM    5  C5  UNL     1     -34.544   6.458   6.276  1.00 20.00     0.078 C 
HETATM    6  N8  UNL     1     -33.611   7.472   4.222  1.00 20.00    -0.249 NA
HETATM    7  S9  UNL     1     -34.174   4.960   3.991  1.00 20.00    -0.078 SA
ENDROOT
BRANCH   1   8
HETATM    8  C7  UNL     1     -32.718   8.136   2.000  1.00 20.00     0.093 C 
HETATM    9  C6  UNL     1     -31.317   7.783   1.503  1.00 20.00     0.028 C 
BRANCH   8  10
HETATM   10  S10 UNL     1     -33.838   8.430   0.585  1.00 20.00    -0.172 SA
HETATM   11  H21 UNL     1     -33.067   9.356   0.001  1.00 20.00     0.102 HD
ENDBRANCH   8  10
ENDBRANCH   1   8
TORSDOF 2
