REMARK  2 active torsions:
REMARK  status: ('A' for Active; 'I' for Inactive)
REMARK    1  A    between atoms: C4_4  and  C5_5 
REMARK    2  A    between atoms: C5_5  and  C7_7 
ROOT
HETATM    1  C1  UNL     1     -33.786   5.883   5.435  1.00 20.00     0.033 A 
HETATM    2  C2  UNL     1     -34.734   5.295   6.242  1.00 20.00     0.088 A 
HETATM    3  C3  UNL     1     -35.337   4.918   4.119  1.00 20.00     0.102 A 
HETATM    4  C4  UNL     1     -34.167   5.644   4.091  1.00 20.00     0.027 A 
HETATM    5  N10 UNL     1     -35.673   4.712   5.431  1.00 20.00    -0.374 N 
HETATM    6  H22 UNL     1     -36.488   4.207   5.752  1.00 20.00     0.164 HD
ENDROOT
BRANCH   4   7
HETATM    7  C5  UNL     1     -33.479   6.069   2.869  1.00 20.00     0.165 C 
HETATM    8  O11 UNL     1     -33.053   5.305   2.010  1.00 20.00    -0.292 OA
BRANCH   7   9
HETATM    9  C7  UNL     1     -33.297   7.511   2.670  1.00 20.00     0.065 A 
HETATM   10  C6  UNL     1     -31.903   8.086   2.674  1.00 20.00     0.018 A 
HETATM   11  C8  UNL     1     -32.675   8.003   1.387  1.00 20.00    -0.006 A 
HETATM   12  C9  UNL     1     -33.182   9.244   0.737  1.00 20.00     0.011 C 
ENDBRANCH   7   9
ENDBRANCH   4   7
TORSDOF 2
