REMARK  3 active torsions:
REMARK  status: ('A' for Active; 'I' for Inactive)
REMARK    1  A    between atoms: C5_5  and  C9_9 
REMARK    2  A    between atoms: C8_8  and  N10_10 
REMARK    3  A    between atoms: C9_9  and  N10_10 
ROOT
HETATM    1  C1  UNL     1     -33.297   9.207   0.261  1.00 20.00     0.013 C 
HETATM    2  C2  UNL     1     -33.061   8.090   0.634  1.00 20.00    -0.087 C 
HETATM    3  C8  UNL     1     -32.769   6.727   1.084  1.00 20.00     0.364 C 
ENDROOT
BRANCH   3   4
HETATM    4  N10 UNL     1     -33.095   6.570   2.511  1.00 20.00     0.095 N 
HETATM    5  C7  UNL     1     -32.005   7.128   3.326  1.00 20.00     0.310 C 
BRANCH   4   6
HETATM    6  C9  UNL     1     -33.346   5.194   2.843  1.00 20.00     0.278 C 
BRANCH   6   7
HETATM    7  C5  UNL     1     -34.172   5.080   4.077  1.00 20.00     0.018 A 
HETATM    8  C3  UNL     1     -35.664   5.279   4.010  1.00 20.00     0.011 A 
HETATM    9  C4  UNL     1     -34.797   6.309   4.684  1.00 20.00    -0.012 A 
HETATM   10  C6  UNL     1     -34.841   6.471   6.164  1.00 20.00     0.010 C 
ENDBRANCH   6   7
ENDBRANCH   4   6
ENDBRANCH   3   4
TORSDOF 3
