REMARK  2 active torsions:
REMARK  status: ('A' for Active; 'I' for Inactive)
REMARK    1  A    between atoms: C6_6  and  C8_8 
REMARK    2  A    between atoms: C8_8  and  N9_9 
ROOT
HETATM    1  C1  UNL     1     -32.774   8.023   1.144  1.00 20.00     0.332 C 
HETATM    2  N9  UNL     1     -32.731   7.384   2.133  1.00 20.00    -0.247 NA
HETATM    3  O10 UNL     1     -32.814   8.662   0.158  1.00 20.00    -0.260 OA
ENDROOT
BRANCH   2   4
HETATM    4  C8  UNL     1     -33.998   6.787   2.529  1.00 20.00     0.162 C 
BRANCH   4   5
HETATM    5  C6  UNL     1     -33.775   6.008   3.827  1.00 20.00    -0.026 C 
HETATM    6  C4  UNL     1     -35.068   5.339   4.313  1.00 20.00     0.011 C 
HETATM    7  C2  UNL     1     -34.864   5.126   5.811  1.00 20.00     0.001 C 
HETATM    8  C3  UNL     1     -33.826   6.157   6.252  1.00 20.00     0.001 C 
HETATM    9  C5  UNL     1     -33.450   6.944   4.999  1.00 20.00     0.011 C 
HETATM   10  C7  UNL     1     -32.658   4.974   3.611  1.00 20.00     0.017 C 
ENDBRANCH   4   5
ENDBRANCH   2   4
TORSDOF 2
