REMARK  4 active torsions:
REMARK  status: ('A' for Active; 'I' for Inactive)
REMARK    1  A    between atoms: C4_4  and  C8_8 
REMARK    2  A    between atoms: C5_5  and  C9_9 
REMARK    3  A    between atoms: C8_8  and  N10_10 
REMARK    4  A    between atoms: C9_9  and  N10_10 
ROOT
HETATM    1  C7  UNL     1     -33.694   4.110   3.249  1.00 20.00     0.310 C 
HETATM    2  N10 UNL     1     -33.879   5.543   2.967  1.00 20.00     0.087 N 
ENDROOT
BRANCH   2   3
HETATM    3  C8  UNL     1     -32.618   6.210   2.793  1.00 20.00     0.277 C 
BRANCH   3   4
HETATM    4  C4  UNL     1     -32.811   7.660   2.509  1.00 20.00     0.018 A 
HETATM    5  C1  UNL     1     -33.917   8.113   1.592  1.00 20.00     0.011 A 
HETATM    6  C3  UNL     1     -32.481   8.274   1.168  1.00 20.00    -0.012 A 
HETATM    7  C6  UNL     1     -31.938   7.475   0.034  1.00 20.00     0.010 C 
ENDBRANCH   3   4
ENDBRANCH   2   3
BRANCH   2   8
HETATM    8  C9  UNL     1     -34.666   6.156   4.048  1.00 20.00     0.305 C 
BRANCH   8   9
HETATM    9  C5  UNL     1     -33.977   6.015   5.363  1.00 20.00     0.173 A 
HETATM   10  C2  UNL     1     -34.314   6.914   6.519  1.00 20.00     0.201 A 
HETATM   11  O11 UNL     1     -33.140   7.120   5.718  1.00 20.00    -0.379 OA
ENDBRANCH   8   9
ENDBRANCH   2   8
TORSDOF 4
