REMARK  3 active torsions:
REMARK  status: ('A' for Active; 'I' for Inactive)
REMARK    1  A    between atoms: C4_4  and  C8_8 
REMARK    2  A    between atoms: C8_8  and  N11_11 
REMARK    3  A    between atoms: C9_9  and  N11_11 
ROOT
HETATM    1  C1  UNL     1     -36.003   4.881   4.821  1.00 20.00     0.095 C 
HETATM    2  C6  UNL     1     -33.666   4.146   4.548  1.00 20.00     0.059 C 
HETATM    3  C9  UNL     1     -34.724   5.170   4.161  1.00 20.00     0.324 C 
HETATM    4  N10 UNL     1     -37.016   4.651   5.340  1.00 20.00    -0.195 NA
ENDROOT
BRANCH   3   5
HETATM    5  N11 UNL     1     -34.280   6.531   4.502  1.00 20.00     0.102 N 
HETATM    6  C7  UNL     1     -34.110   6.640   5.959  1.00 20.00     0.311 C 
BRANCH   5   7
HETATM    7  C8  UNL     1     -33.071   6.878   3.806  1.00 20.00     0.278 C 
BRANCH   7   8
HETATM    8  C4  UNL     1     -33.350   7.234   2.387  1.00 20.00     0.018 A 
HETATM    9  C2  UNL     1     -32.242   7.201   1.367  1.00 20.00     0.011 A 
HETATM   10  C3  UNL     1     -32.816   8.520   1.811  1.00 20.00    -0.012 A 
HETATM   11  C5  UNL     1     -33.653   9.325   0.878  1.00 20.00     0.010 C 
ENDBRANCH   7   8
ENDBRANCH   5   7
ENDBRANCH   3   5
TORSDOF 3
