REMARK  4 active torsions:
REMARK  status: ('A' for Active; 'I' for Inactive)
REMARK    1  A    between atoms: C2_2  and  C10_10 
REMARK    2  A    between atoms: C7_7  and  C11_11 
REMARK    3  A    between atoms: C10_10  and  N12_12 
REMARK    4  A    between atoms: C11_11  and  N12_12 
ROOT
HETATM    1  C1  UNL     1     -32.440   9.857   0.341  1.00 20.00    -0.109 C 
HETATM    2  C2  UNL     1     -32.138   8.712   0.543  1.00 20.00    -0.077 C 
HETATM    3  C8  UNL     1     -32.808  11.250   0.094  1.00 20.00     0.112 C 
ENDROOT
BRANCH   2   4
HETATM    4  C10 UNL     1     -31.762   7.316   0.786  1.00 20.00     0.362 C 
BRANCH   4   5
HETATM    5  N12 UNL     1     -32.827   6.604   1.507  1.00 20.00     0.095 N 
HETATM    6  H31 UNL     1     -32.682   5.594   1.357  1.00 20.00     0.317 HD
BRANCH   5   7
HETATM    7  C11 UNL     1     -32.843   6.919   2.892  1.00 20.00     0.279 C 
BRANCH   7   8
HETATM    8  C7  UNL     1     -33.979   6.154   3.574  1.00 20.00    -0.018 C 
HETATM    9  C5  UNL     1     -34.037   6.450   5.079  1.00 20.00     0.011 C 
HETATM   10  C3  UNL     1     -34.762   5.253   5.691  1.00 20.00     0.001 C 
HETATM   11  C4  UNL     1     -34.561   4.091   4.720  1.00 20.00     0.001 C 
HETATM   12  C6  UNL     1     -33.726   4.640   3.565  1.00 20.00     0.011 C 
HETATM   13  C9  UNL     1     -35.309   6.501   2.885  1.00 20.00     0.017 C 
ENDBRANCH   7   8
ENDBRANCH   5   7
ENDBRANCH   4   5
ENDBRANCH   2   4
TORSDOF 4
