REMARK  3 active torsions:
REMARK  status: ('A' for Active; 'I' for Inactive)
REMARK    1  A    between atoms: C4_4  and  C8_8 
REMARK    2  A    between atoms: C7_7  and  N10_10 
REMARK    3  A    between atoms: C8_8  and  N10_10 
ROOT
HETATM    1  C1  UNL     1     -34.411   6.363   5.237  1.00 20.00     0.089 C 
HETATM    2  C7  UNL     1     -34.502   5.442   4.105  1.00 20.00     0.394 C 
HETATM    3  N9  UNL     1     -34.342   7.092   6.137  1.00 20.00    -0.195 NA
ENDROOT
BRANCH   2   4
HETATM    4  N10 UNL     1     -33.578   5.839   3.031  1.00 20.00     0.097 N 
HETATM    5  C6  UNL     1     -33.330   4.688   2.149  1.00 20.00     0.311 C 
BRANCH   4   6
HETATM    6  C8  UNL     1     -34.083   6.965   2.295  1.00 20.00     0.278 C 
BRANCH   6   7
HETATM    7  C4  UNL     1     -32.982   7.695   1.605  1.00 20.00     0.018 A 
HETATM    8  C2  UNL     1     -32.420   7.170   0.311  1.00 20.00     0.011 A 
HETATM    9  C3  UNL     1     -33.252   8.426   0.316  1.00 20.00    -0.012 A 
HETATM   10  C5  UNL     1     -32.614   9.747   0.058  1.00 20.00     0.010 C 
ENDBRANCH   6   7
ENDBRANCH   4   6
ENDBRANCH   2   4
TORSDOF 3
