REMARK  4 active torsions:
REMARK  status: ('A' for Active; 'I' for Inactive)
REMARK    1  A    between atoms: C6_6  and  C10_10 
REMARK    2  A    between atoms: C8_8  and  C9_9 
REMARK    3  A    between atoms: C9_9  and  C10_10 
REMARK    4  A    between atoms: C10_10  and  O11_11 
ROOT
HETATM    1  C1  UNL     1     -34.741   4.775   6.066  1.00 20.00    -0.031 C 
HETATM    2  C2  UNL     1     -34.438   5.996   6.527  1.00 20.00    -0.030 C 
HETATM    3  C3  UNL     1     -34.572   4.375   4.631  1.00 20.00     0.027 C 
HETATM    4  C4  UNL     1     -33.929   7.101   5.649  1.00 20.00     0.034 C 
HETATM    5  C5  UNL     1     -33.739   5.372   3.819  1.00 20.00     0.011 C 
HETATM    6  C6  UNL     1     -34.125   6.819   4.148  1.00 20.00     0.018 C 
ENDROOT
BRANCH   6   7
HETATM    7  C10 UNL     1     -33.325   7.808   3.303  1.00 20.00     0.122 C 
BRANCH   7   8
HETATM    8  C9  UNL     1     -33.839   7.853   1.862  1.00 20.00     0.032 C 
BRANCH   8   9
HETATM    9  C8  UNL     1     -33.020   8.811   0.993  1.00 20.00    -0.002 C 
HETATM   10  C7  UNL     1     -33.514   8.815  -0.446  1.00 20.00     0.005 C 
ENDBRANCH   8   9
ENDBRANCH   7   8
BRANCH   7  11
HETATM   11  O11 UNL     1     -31.956   7.420   3.327  1.00 20.00    -0.395 OA
HETATM   12  H29 UNL     1     -31.677   7.444   4.256  1.00 20.00     0.210 HD
ENDBRANCH   7  11
ENDBRANCH   6   7
TORSDOF 4
