REMARK  2 active torsions:
REMARK  status: ('A' for Active; 'I' for Inactive)
REMARK    1  A    between atoms: C3_3  and  C8_8 
REMARK    2  A    between atoms: C10_10  and  N11_11 
ROOT
HETATM    1  C1  UNL     1     -33.179   8.444  -0.271  1.00 20.00     0.013 C 
HETATM    2  C2  UNL     1     -32.613   8.264   0.772  1.00 20.00    -0.087 C 
HETATM    3  C10 UNL     1     -31.919   8.048   2.044  1.00 20.00     0.364 C 
ENDROOT
BRANCH   3   4
HETATM    4  N11 UNL     1     -32.583   7.003   2.824  1.00 20.00     0.100 N 
HETATM    5  C6  UNL     1     -32.593   5.736   2.081  1.00 20.00     0.273 C 
HETATM    6  C4  UNL     1     -33.223   4.619   2.912  1.00 20.00     0.031 C 
HETATM    7  C5  UNL     1     -34.633   4.986   3.368  1.00 20.00     0.015 C 
HETATM    8  C8  UNL     1     -34.667   6.363   4.033  1.00 20.00     0.083 C 
HETATM    9  C7  UNL     1     -33.948   7.419   3.183  1.00 20.00     0.285 C 
BRANCH   8  10
HETATM   10  C3  UNL     1     -34.085   6.302   5.419  1.00 20.00     0.129 C 
HETATM   11  C9  UNL     1     -34.729   5.341   6.381  1.00 20.00     0.091 C 
HETATM   12  O12 UNL     1     -33.129   7.002   5.748  1.00 20.00    -0.298 OA
ENDBRANCH   8  10
ENDBRANCH   3   4
TORSDOF 2
