REMARK  3 active torsions:
REMARK  status: ('A' for Active; 'I' for Inactive)
REMARK    1  A    between atoms: C1_1  and  C6_6 
REMARK    2  A    between atoms: C6_6  and  C7_7 
REMARK    3  A    between atoms: C7_7  and  C8_8 
ROOT
HETATM    1  C2  UNL     1     -33.166   4.939   2.247  1.00 20.00     0.011 C 
HETATM    2  C7  UNL     1     -33.270   6.217   3.102  1.00 20.00    -0.003 C 
ENDROOT
BRANCH   2   3
HETATM    3  C6  UNL     1     -33.916   7.336   2.249  1.00 20.00     0.101 C 
BRANCH   3   4
HETATM    4  C1  UNL     1     -32.970   7.930   1.213  1.00 20.00     0.219 C 
HETATM    5  O9  UNL     1     -31.822   7.527   1.050  1.00 20.00    -0.280 OA
HETATM    6 CL10 UNL     1     -33.740   9.184   0.280  1.00 20.00    -0.044 Cl
ENDBRANCH   3   4
ENDBRANCH   2   3
BRANCH   2   7
HETATM    7  C8  UNL     1     -34.005   5.990   4.477  1.00 20.00    -0.048 C 
HETATM    8  C3  UNL     1     -34.004   7.287   5.316  1.00 20.00     0.015 C 
HETATM    9  C4  UNL     1     -33.264   4.917   5.306  1.00 20.00     0.015 C 
HETATM   10  C5  UNL     1     -35.465   5.535   4.294  1.00 20.00     0.015 C 
ENDBRANCH   2   7
TORSDOF 3
