REMARK  3 active torsions:
REMARK  status: ('A' for Active; 'I' for Inactive)
REMARK    1  A    between atoms: C4_4  and  C8_8 
REMARK    2  A    between atoms: C7_7  and  N10_10 
REMARK    3  A    between atoms: C8_8  and  N10_10 
ROOT
HETATM    1  C1  UNL     1     -33.062   8.570   1.257  1.00 20.00     0.089 C 
HETATM    2  C7  UNL     1     -32.591   7.224   1.577  1.00 20.00     0.394 C 
HETATM    3  N9  UNL     1     -33.433   9.639   0.999  1.00 20.00    -0.195 NA
ENDROOT
BRANCH   2   4
HETATM    4  N10 UNL     1     -32.945   6.859   2.958  1.00 20.00     0.097 N 
HETATM    5  C6  UNL     1     -31.983   7.471   3.888  1.00 20.00     0.311 C 
BRANCH   4   6
HETATM    6  C8  UNL     1     -33.000   5.433   3.125  1.00 20.00     0.278 C 
BRANCH   6   7
HETATM    7  C4  UNL     1     -33.848   5.060   4.292  1.00 20.00     0.018 A 
HETATM    8  C2  UNL     1     -35.348   5.049   4.165  1.00 20.00     0.011 A 
HETATM    9  C3  UNL     1     -34.672   6.109   4.993  1.00 20.00    -0.012 A 
HETATM   10  C5  UNL     1     -34.797   6.092   6.478  1.00 20.00     0.010 C 
ENDBRANCH   6   7
ENDBRANCH   4   6
ENDBRANCH   2   4
TORSDOF 3
