REMARK  4 active torsions:
REMARK  status: ('A' for Active; 'I' for Inactive)
REMARK    1  A    between atoms: C8_8  and  C11_11 
REMARK    2  A    between atoms: C9_9  and  C10_10 
REMARK    3  A    between atoms: C10_10  and  C11_11 
REMARK    4  A    between atoms: C11_11  and  O12_12 
ROOT
HETATM    1  C1  UNL     1     -33.091  11.251   1.088  1.00 20.00     0.012 C 
HETATM    2  C2  UNL     1     -32.709  10.161   0.760  1.00 20.00    -0.117 C 
HETATM    3  C9  UNL     1     -32.238   8.829   0.355  1.00 20.00     0.095 C 
ENDROOT
BRANCH   3   4
HETATM    4  C10 UNL     1     -32.927   7.707   1.138  1.00 20.00     0.044 C 
BRANCH   4   5
HETATM    5  C11 UNL     1     -32.712   7.791   2.654  1.00 20.00     0.123 C 
BRANCH   5   6
HETATM    6  C8  UNL     1     -33.771   6.984   3.402  1.00 20.00     0.018 C 
HETATM    7  C6  UNL     1     -33.519   7.029   4.919  1.00 20.00     0.034 C 
HETATM    8  C4  UNL     1     -34.333   6.025   5.681  1.00 20.00    -0.030 C 
HETATM    9  C3  UNL     1     -34.968   5.000   5.095  1.00 20.00    -0.031 C 
HETATM   10  C5  UNL     1     -34.904   4.731   3.622  1.00 20.00     0.027 C 
HETATM   11  C7  UNL     1     -33.811   5.532   2.907  1.00 20.00     0.011 C 
ENDBRANCH   5   6
BRANCH   5  12
HETATM   12  O12 UNL     1     -31.428   7.267   2.976  1.00 20.00    -0.395 OA
HETATM   13  H28 UNL     1     -31.427   6.339   2.694  1.00 20.00     0.210 HD
ENDBRANCH   5  12
ENDBRANCH   4   5
ENDBRANCH   3   4
TORSDOF 4
