REMARK  3 active torsions:
REMARK  status: ('A' for Active; 'I' for Inactive)
REMARK    1  A    between atoms: C5_5  and  C9_9 
REMARK    2  A    between atoms: C8_8  and  N10_10 
REMARK    3  A    between atoms: C9_9  and  N10_10 
ROOT
HETATM    1  C1  UNL     1     -33.198   8.743   0.812  1.00 20.00     0.013 C 
HETATM    2  C2  UNL     1     -32.867   7.762   1.420  1.00 20.00    -0.087 C 
HETATM    3  C8  UNL     1     -32.463   6.562   2.156  1.00 20.00     0.364 C 
ENDROOT
BRANCH   3   4
HETATM    4  N10 UNL     1     -32.356   6.847   3.596  1.00 20.00     0.095 N 
HETATM    5  C7  UNL     1     -31.351   7.900   3.813  1.00 20.00     0.310 C 
BRANCH   4   6
HETATM    6  C9  UNL     1     -33.629   7.215   4.153  1.00 20.00     0.278 C 
BRANCH   6   7
HETATM    7  C5  UNL     1     -34.643   6.146   3.931  1.00 20.00     0.018 A 
HETATM    8  C3  UNL     1     -34.259   4.695   4.063  1.00 20.00     0.011 A 
HETATM    9  C4  UNL     1     -35.203   5.313   5.061  1.00 20.00    -0.012 A 
HETATM   10  C6  UNL     1     -34.783   5.500   6.478  1.00 20.00     0.010 C 
ENDBRANCH   6   7
ENDBRANCH   4   6
ENDBRANCH   3   4
TORSDOF 3
