REMARK  2 active torsions:
REMARK  status: ('A' for Active; 'I' for Inactive)
REMARK    1  A    between atoms: C6_6  and  C8_8 
REMARK    2  A    between atoms: C8_8  and  N9_9 
ROOT
HETATM    1  C1  UNL     1     -32.407   7.872   1.350  1.00 20.00     0.157 C 
HETATM    2  N9  UNL     1     -32.292   7.568   2.483  1.00 20.00    -0.275 NA
HETATM    3  S10 UNL     1     -32.557   8.300  -0.177  1.00 20.00    -0.055 SA
ENDROOT
BRANCH   2   4
HETATM    4  C8  UNL     1     -32.608   6.181   2.789  1.00 20.00     0.159 C 
BRANCH   4   5
HETATM    5  C6  UNL     1     -33.767   6.164   3.787  1.00 20.00    -0.026 C 
HETATM    6  C4  UNL     1     -33.406   6.900   5.085  1.00 20.00     0.011 C 
HETATM    7  C2  UNL     1     -34.348   6.327   6.141  1.00 20.00     0.001 C 
HETATM    8  C3  UNL     1     -34.760   4.943   5.639  1.00 20.00     0.001 C 
HETATM    9  C5  UNL     1     -34.049   4.746   4.302  1.00 20.00     0.011 C 
HETATM   10  C7  UNL     1     -35.014   6.776   3.127  1.00 20.00     0.017 C 
ENDBRANCH   4   5
ENDBRANCH   2   4
TORSDOF 2
