REMARK  4 active torsions:
REMARK  status: ('A' for Active; 'I' for Inactive)
REMARK    1  A    between atoms: C1_1  and  C12_12 
REMARK    2  A    between atoms: C6_6  and  C10_10 
REMARK    3  A    between atoms: C7_7  and  C11_11 
REMARK    4  A    between atoms: C11_11  and  C12_12 
ROOT
HETATM    1  C2  UNL     1     -33.890   4.155   4.436  1.00 20.00     0.001 C 
HETATM    2  C3  UNL     1     -34.886   4.860   5.355  1.00 20.00     0.005 C 
HETATM    3  C4  UNL     1     -33.832   4.811   3.059  1.00 20.00     0.005 C 
HETATM    4  C5  UNL     1     -34.539   7.015   4.078  1.00 20.00     0.009 C 
HETATM    5  C6  UNL     1     -34.634   6.370   5.469  1.00 20.00    -0.014 C 
HETATM    6  C7  UNL     1     -33.533   6.313   3.153  1.00 20.00    -0.013 C 
ENDROOT
BRANCH   6   7
HETATM    7  C11 UNL     1     -33.546   6.950   1.764  1.00 20.00     0.015 C 
BRANCH   7   8
HETATM    8  C12 UNL     1     -32.817   8.296   1.732  1.00 20.00     0.043 C 
HETATM    9  C9  UNL     1     -31.306   8.084   1.678  1.00 20.00     0.017 C 
BRANCH   8  10
HETATM   10  C1  UNL     1     -33.207   9.156   0.543  1.00 20.00     0.235 C 
HETATM   11  O13 UNL     1     -34.028   8.843  -0.313  1.00 20.00    -0.306 OA
ENDBRANCH   8  10
ENDBRANCH   7   8
ENDBRANCH   6   7
BRANCH   5  12
HETATM   12  C10 UNL     1     -33.400   6.675   6.322  1.00 20.00     0.000 C 
HETATM   13  C8  UNL     1     -33.519   6.090   7.691  1.00 20.00     0.005 C 
ENDBRANCH   5  12
TORSDOF 4
