REMARK  0 active torsions:
REMARK  status: ('A' for Active; 'I' for Inactive)
ROOT
HETATM    1  C1  UNL     1     -33.673   5.488   3.514  1.00 20.00    -0.066 C 
HETATM    2  C2  UNL     1     -32.890   4.984   2.551  1.00 20.00     0.016 C 
HETATM    3  C3  UNL     1     -34.613   4.640   4.326  1.00 20.00     0.037 C 
HETATM    4  C4  UNL     1     -33.664   6.943   3.892  1.00 20.00     0.201 C 
HETATM    5  C5  UNL     1     -34.418   4.930   5.814  1.00 20.00     0.030 C 
HETATM    6  C6  UNL     1     -34.427   6.433   6.084  1.00 20.00     0.168 C 
HETATM    7  O7  UNL     1     -33.429   7.087   5.296  1.00 20.00    -0.387 OA
ENDROOT
TORSDOF 0
