REMARK  5 active torsions:
REMARK  status: ('A' for Active; 'I' for Inactive)
REMARK    1  A    between atoms: C4_4  and  C5_5 
REMARK    2  A    between atoms: C4_4  and  C6_6 
REMARK    3  A    between atoms: C5_5  and  C8_8 
REMARK    4  A    between atoms: C6_6  and  C9_9 
REMARK    5  A    between atoms: C7_7  and  C9_9 
ROOT
HETATM    1  C4  UNL     1     -32.145   6.869   2.628  1.00 20.00     0.001 C 
ENDROOT
BRANCH   1   2
HETATM    2  C5  UNL     1     -32.037   8.253   1.979  1.00 20.00     0.004 C 
BRANCH   2   3
HETATM    3  C8  UNL     1     -32.923   8.415   0.730  1.00 20.00    -0.023 C 
HETATM    4  C1  UNL     1     -32.574   7.412  -0.370  1.00 20.00     0.009 C 
HETATM    5  C2  UNL     1     -32.799   9.841   0.187  1.00 20.00     0.009 C 
ENDBRANCH   2   3
ENDBRANCH   1   2
BRANCH   1   6
HETATM    6  C6  UNL     1     -33.576   6.590   3.098  1.00 20.00     0.005 C 
BRANCH   6   7
HETATM    7  C9  UNL     1     -33.754   5.203   3.747  1.00 20.00    -0.005 C 
HETATM    8  C3  UNL     1     -33.860   4.129   2.658  1.00 20.00     0.011 C 
BRANCH   7   9
HETATM    9  C7  UNL     1     -34.924   5.112   4.740  1.00 20.00     0.119 C 
HETATM   10 CL10 UNL     1     -34.601   5.910   6.298  1.00 20.00    -0.130 Cl
ENDBRANCH   7   9
ENDBRANCH   6   7
ENDBRANCH   1   6
TORSDOF 5
