REMARK  2 active torsions:
REMARK  status: ('A' for Active; 'I' for Inactive)
REMARK    1  A    between atoms: C5_5  and  C7_7 
REMARK    2  A    between atoms: C6_6  and  C7_7 
ROOT
HETATM    1  C3  UNL     1     -34.225   3.818   3.642  1.00 20.00     0.016 C 
HETATM    2  C4  UNL     1     -35.396   5.994   3.325  1.00 20.00     0.016 C 
HETATM    3  C7  UNL     1     -34.103   5.342   3.870  1.00 20.00    -0.032 C 
ENDROOT
BRANCH   3   4
HETATM    4  C5  UNL     1     -32.900   5.827   3.011  1.00 20.00     0.123 C 
HETATM    5 CL8  UNL     1     -32.910   7.575   2.663  1.00 20.00    -0.130 Cl
ENDBRANCH   3   4
BRANCH   3   6
HETATM    6  C6  UNL     1     -33.927   5.688   5.397  1.00 20.00    -0.014 C 
HETATM    7  C1  UNL     1     -35.072   5.178   6.286  1.00 20.00     0.010 C 
HETATM    8  C2  UNL     1     -33.730   7.186   5.680  1.00 20.00     0.010 C 
ENDBRANCH   3   6
TORSDOF 2
