REMARK  4 active torsions:
REMARK  status: ('A' for Active; 'I' for Inactive)
REMARK    1  A    between atoms: C1_1  and  C5_5 
REMARK    2  A    between atoms: C2_2  and  C6_6 
REMARK    3  A    between atoms: C5_5  and  N8_8 
REMARK    4  A    between atoms: C7_7  and  N8_8 
ROOT
HETATM    1  C5  UNL     1     -32.206   7.411   2.987  1.00 20.00     0.299 C 
ENDROOT
BRANCH   1   2
HETATM    2  C1  UNL     1     -32.988   8.196   1.985  1.00 20.00     0.000 C 
HETATM    3  C2  UNL     1     -32.586   8.396   0.720  1.00 20.00    -0.014 C 
BRANCH   3   4
HETATM    4  C6  UNL     1     -33.376   9.165  -0.287  1.00 20.00     0.141 C 
HETATM    5 CL9  UNL     1     -33.796   8.115  -1.656  1.00 20.00    -0.126 Cl
ENDBRANCH   3   4
ENDBRANCH   1   2
BRANCH   1   6
HETATM    6  N8  UNL     1     -32.986   6.281   3.408  1.00 20.00     0.087 N 
HETATM    7  C4  UNL     1     -33.317   5.403   2.274  1.00 20.00     0.310 C 
BRANCH   6   8
HETATM    8  C7  UNL     1     -34.227   6.704   4.077  1.00 20.00     0.268 C 
HETATM    9  C3  UNL     1     -34.988   5.529   4.590  1.00 20.00     0.037 C 
ENDBRANCH   6   8
ENDBRANCH   1   6
TORSDOF 4
