REMARK  0 active torsions:
REMARK  status: ('A' for Active; 'I' for Inactive)
ROOT
HETATM    1  C1  UNL     1     -33.186   7.006   4.994  1.00 20.00    -0.088 C 
HETATM    2  C2  UNL     1     -33.481   7.770   6.055  1.00 20.00     0.014 C 
HETATM    3  C3  UNL     1     -32.630   7.574   3.716  1.00 20.00     0.037 C 
HETATM    4  C4  UNL     1     -33.401   5.513   4.984  1.00 20.00     0.042 C 
HETATM    5  C5  UNL     1     -33.705   5.642   2.469  1.00 20.00     0.013 C 
HETATM    6  C6  UNL     1     -33.493   7.168   2.511  1.00 20.00    -0.014 C 
HETATM    7  C7  UNL     1     -34.273   5.059   3.789  1.00 20.00    -0.044 C 
HETATM    8  C8  UNL     1     -32.857   7.655   1.209  1.00 20.00     0.010 C 
HETATM    9  C9  UNL     1     -35.737   5.500   3.991  1.00 20.00     0.015 C 
HETATM   10  C10 UNL     1     -34.248   3.521   3.707  1.00 20.00     0.015 C 
ENDROOT
TORSDOF 0
