REMARK  4 active torsions:
REMARK  status: ('A' for Active; 'I' for Inactive)
REMARK    1  A    between atoms: C4_4  and  C5_5 
REMARK    2  A    between atoms: C5_5  and  C6_6 
REMARK    3  A    between atoms: C6_6  and  C8_8 
REMARK    4  A    between atoms: C7_7  and  C8_8 
ROOT
HETATM    1  C1  UNL     1     -33.728   8.953  -0.326  1.00 20.00     0.012 C 
HETATM    2  C2  UNL     1     -32.859   8.300   0.185  1.00 20.00    -0.117 C 
HETATM    3  C4  UNL     1     -31.794   7.503   0.809  1.00 20.00     0.093 C 
ENDROOT
BRANCH   3   4
HETATM    4  C5  UNL     1     -32.130   7.113   2.251  1.00 20.00     0.012 C 
BRANCH   4   5
HETATM    5  C6  UNL     1     -33.418   6.287   2.357  1.00 20.00     0.006 C 
BRANCH   5   6
HETATM    6  C8  UNL     1     -33.724   5.806   3.791  1.00 20.00    -0.005 C 
HETATM    7  C3  UNL     1     -34.972   4.916   3.783  1.00 20.00     0.011 C 
BRANCH   6   8
HETATM    8  C7  UNL     1     -33.849   6.931   4.830  1.00 20.00     0.119 C 
HETATM    9 CL9  UNL     1     -34.020   6.342   6.502  1.00 20.00    -0.130 Cl
ENDBRANCH   6   8
ENDBRANCH   5   6
ENDBRANCH   4   5
ENDBRANCH   3   4
TORSDOF 4
