REMARK  2 active torsions:
REMARK  status: ('A' for Active; 'I' for Inactive)
REMARK    1  A    between atoms: C7_7  and  C8_8 
REMARK    2  A    between atoms: C7_7  and  N9_9 
ROOT
HETATM    1  C1  UNL     1     -33.681   4.372   3.914  1.00 20.00     0.038 C 
HETATM    2  C2  UNL     1     -33.277   5.022   2.598  1.00 20.00     0.235 C 
HETATM    3  C3  UNL     1     -33.542   6.694   4.363  1.00 20.00     0.243 C 
HETATM    4  C4  UNL     1     -34.398   5.473   4.701  1.00 20.00    -0.022 C 
HETATM    5  C5  UNL     1     -35.849   5.649   4.224  1.00 20.00     0.016 C 
HETATM    6  C6  UNL     1     -34.393   5.187   6.204  1.00 20.00     0.016 C 
HETATM    7  N9  UNL     1     -33.206   6.506   2.898  1.00 20.00    -0.069 N 
HETATM    8  H27 UNL     1     -33.957   6.957   2.358  1.00 20.00     0.280 HD
ENDROOT
BRANCH   7   9
HETATM    9  C7  UNL     1     -31.924   7.157   2.486  1.00 20.00     0.250 C 
BRANCH   9  10
HETATM   10  C8  UNL     1     -31.938   7.437   0.995  1.00 20.00     0.142 C 
HETATM   11 CL10 UNL     1     -33.296   8.495   0.540  1.00 20.00    -0.129 Cl
ENDBRANCH   9  10
ENDBRANCH   7   9
TORSDOF 2
