REMARK  3 active torsions:
REMARK  status: ('A' for Active; 'I' for Inactive)
REMARK    1  A    between atoms: C3_3  and  C5_5 
REMARK    2  A    between atoms: C5_5  and  C7_7 
REMARK    3  A    between atoms: C6_6  and  C7_7 
ROOT
HETATM    1  C5  UNL     1     -32.495   7.154   2.657  1.00 20.00     0.010 C 
ENDROOT
BRANCH   1   2
HETATM    2  C3  UNL     1     -32.825   7.492   1.233  1.00 20.00    -0.014 A 
HETATM    3  C1  UNL     1     -33.439   8.822   0.892  1.00 20.00     0.005 A 
HETATM    4  C2  UNL     1     -32.020   8.526   0.495  1.00 20.00     0.005 A 
ENDBRANCH   1   2
BRANCH   1   5
HETATM    5  C7  UNL     1     -33.660   6.471   3.401  1.00 20.00    -0.004 C 
HETATM    6  C4  UNL     1     -33.792   4.992   3.020  1.00 20.00     0.011 C 
BRANCH   5   7
HETATM    7  C6  UNL     1     -33.544   6.650   4.924  1.00 20.00     0.119 C 
HETATM    8 CL8  UNL     1     -34.954   6.041   5.825  1.00 20.00    -0.130 Cl
ENDBRANCH   5   7
ENDBRANCH   1   5
TORSDOF 3
