REMARK  1 active torsions:
REMARK  status: ('A' for Active; 'I' for Inactive)
REMARK    1  A    between atoms: C6_6  and  C9_9 
ROOT
HETATM    1  C1  UNL     1     -34.464   5.376   4.904  1.00 20.00    -0.085 C 
HETATM    2  C2  UNL     1     -34.387   5.358   6.241  1.00 20.00     0.014 C 
HETATM    3  C3  UNL     1     -34.646   4.134   4.074  1.00 20.00     0.059 C 
HETATM    4  C4  UNL     1     -34.345   6.638   4.090  1.00 20.00     0.065 C 
HETATM    5  C5  UNL     1     -33.574   4.089   2.988  1.00 20.00     0.172 C 
HETATM    6  C6  UNL     1     -33.281   6.444   3.003  1.00 20.00     0.128 C 
HETATM    7  O10 UNL     1     -33.590   5.290   2.208  1.00 20.00    -0.385 OA
ENDROOT
BRANCH   6   8
HETATM    8  C9  UNL     1     -33.228   7.647   2.072  1.00 20.00     0.007 C 
HETATM    9  C7  UNL     1     -32.921   8.925   2.853  1.00 20.00     0.012 C 
HETATM   10  C8  UNL     1     -32.190   7.434   0.970  1.00 20.00     0.012 C 
ENDBRANCH   6   8
TORSDOF 1
