REMARK  2 active torsions:
REMARK  status: ('A' for Active; 'I' for Inactive)
REMARK    1  A    between atoms: C1_1  and  C5_5 
REMARK    2  A    between atoms: C1_1  and  C6_6 
ROOT
HETATM    1  C2  UNL     1     -33.478   5.150   2.849  1.00 20.00     0.023 C 
HETATM    2  C3  UNL     1     -34.581   4.488   3.657  1.00 20.00     0.075 C 
HETATM    3  C4  UNL     1     -33.728   6.870   4.563  1.00 20.00     0.086 C 
HETATM    4  C5  UNL     1     -33.628   6.651   3.060  1.00 20.00     0.066 C 
HETATM    5  S8  UNL     1     -34.690   5.461   5.183  1.00 20.00    -0.168 SA
ENDROOT
BRANCH   4   6
HETATM    6  C1  UNL     1     -32.451   7.377   2.490  1.00 20.00     0.145 C 
HETATM    7  O7  UNL     1     -31.452   7.587   3.176  1.00 20.00    -0.296 OA
BRANCH   6   8
HETATM    8  C6  UNL     1     -32.587   7.820   1.051  1.00 20.00     0.193 C 
HETATM    9 CL9  UNL     1     -33.303   9.436   0.958  1.00 20.00    -0.123 Cl
ENDBRANCH   6   8
ENDBRANCH   4   6
TORSDOF 2
