REMARK  4 active torsions:
REMARK  status: ('A' for Active; 'I' for Inactive)
REMARK    1  A    between atoms: C1_1  and  C6_6 
REMARK    2  A    between atoms: C2_2  and  C7_7 
REMARK    3  A    between atoms: C6_6  and  S9_9 
REMARK    4  A    between atoms: C8_8  and  S9_9 
ROOT
HETATM    1  C6  UNL     1     -32.857   7.304   3.029  1.00 20.00     0.101 C 
ENDROOT
BRANCH   1   2
HETATM    2  C1  UNL     1     -33.743   6.801   4.124  1.00 20.00    -0.020 C 
HETATM    3  C2  UNL     1     -33.510   7.015   5.428  1.00 20.00    -0.015 C 
BRANCH   3   4
HETATM    4  C7  UNL     1     -34.398   6.518   6.520  1.00 20.00     0.141 C 
HETATM    5 CL10 UNL     1     -35.216   5.027   6.004  1.00 20.00    -0.126 Cl
ENDBRANCH   3   4
ENDBRANCH   1   2
BRANCH   1   6
HETATM    6  S9  UNL     1     -33.826   7.623   1.541  1.00 20.00    -0.156 SA
BRANCH   6   7
HETATM    7  C8  UNL     1     -32.641   8.752   0.711  1.00 20.00    -0.003 C 
HETATM    8  C3  UNL     1     -31.220   8.368   1.133  1.00 20.00     0.026 C 
HETATM    9  C4  UNL     1     -32.806   8.597  -0.803  1.00 20.00     0.026 C 
HETATM   10  C5  UNL     1     -32.954  10.190   1.136  1.00 20.00     0.026 C 
ENDBRANCH   6   7
ENDBRANCH   1   6
TORSDOF 4
