REMARK  3 active torsions:
REMARK  status: ('A' for Active; 'I' for Inactive)
REMARK    1  A    between atoms: C1_1  and  C5_5 
REMARK    2  A    between atoms: C1_1  and  C7_7 
REMARK    3  A    between atoms: C6_6  and  C7_7 
ROOT
HETATM    1  C3  UNL     1     -35.820   5.586   4.124  1.00 20.00     0.023 C 
HETATM    2  C4  UNL     1     -34.006   3.930   3.746  1.00 20.00     0.023 C 
HETATM    3  C7  UNL     1     -34.321   5.310   4.352  1.00 20.00     0.014 C 
ENDROOT
BRANCH   3   4
HETATM    4  C1  UNL     1     -33.480   6.392   3.634  1.00 20.00     0.148 C 
HETATM    5  O8  UNL     1     -32.712   7.120   4.267  1.00 20.00    -0.296 OA
BRANCH   4   6
HETATM    6  C5  UNL     1     -33.642   6.527   2.130  1.00 20.00     0.193 C 
HETATM    7 CL9  UNL     1     -32.611   7.831   1.513  1.00 20.00    -0.123 Cl
ENDBRANCH   4   6
ENDBRANCH   3   4
BRANCH   3   8
HETATM    8  C6  UNL     1     -33.996   5.284   5.866  1.00 20.00     0.012 C 
HETATM    9  C2  UNL     1     -34.267   6.587   6.609  1.00 20.00     0.006 C 
ENDBRANCH   3   8
TORSDOF 3
