REMARK  1 active torsions:
REMARK  status: ('A' for Active; 'I' for Inactive)
REMARK    1  A    between atoms: C7_7  and  C8_8 
ROOT
HETATM    1  C1  UNL     1     -33.192   8.503   0.553  1.00 20.00     0.064 C 
HETATM    2  C2  UNL     1     -32.877   8.099   3.019  1.00 20.00     0.020 C 
HETATM    3  C3  UNL     1     -33.258   6.153   1.453  1.00 20.00     0.020 C 
HETATM    4  C4  UNL     1     -32.374   7.137   4.097  1.00 20.00     0.015 C 
HETATM    5  C5  UNL     1     -32.755   5.187   2.528  1.00 20.00     0.015 C 
HETATM    6  C6  UNL     1     -32.638   7.547   1.608  1.00 20.00     0.093 C 
HETATM    7  C7  UNL     1     -32.946   5.722   3.953  1.00 20.00     0.093 C 
HETATM    8  N9  UNL     1     -33.612   9.230  -0.248  1.00 20.00    -0.197 NA
ENDROOT
BRANCH   7   9
HETATM    9  C8  UNL     1     -34.367   5.683   4.346  1.00 20.00     0.391 C 
HETATM   10  F10 UNL     1     -34.505   6.110   5.610  1.00 20.00    -0.171 F 
HETATM   11  F11 UNL     1     -35.089   6.474   3.538  1.00 20.00    -0.171 F 
HETATM   12  F12 UNL     1     -34.834   4.429   4.258  1.00 20.00    -0.171 F 
ENDBRANCH   7   9
TORSDOF 1
