REMARK  0 active torsions:
REMARK  status: ('A' for Active; 'I' for Inactive)
ROOT
HETATM    1  C1  UNL     1     -32.947   8.300   0.556  1.00 20.00     0.088 C 
HETATM    2  C2  UNL     1     -33.030   6.593   2.253  1.00 20.00    -0.070 C 
HETATM    3  C3  UNL     1     -33.258   6.988   0.992  1.00 20.00     0.096 C 
HETATM    4  C4  UNL     1     -32.430   7.513   3.284  1.00 20.00     0.035 C 
HETATM    5  C5  UNL     1     -33.394   5.223   2.750  1.00 20.00     0.039 C 
HETATM    6  C6  UNL     1     -32.846   7.137   4.714  1.00 20.00     0.009 C 
HETATM    7  C7  UNL     1     -34.413   5.283   3.912  1.00 20.00    -0.011 C 
HETATM    8  C8  UNL     1     -34.280   6.587   4.758  1.00 20.00    -0.014 C 
HETATM    9  C9  UNL     1     -34.312   3.984   4.719  1.00 20.00     0.010 C 
HETATM   10  C10 UNL     1     -34.770   6.461   6.201  1.00 20.00     0.010 C 
HETATM   11  N11 UNL     1     -32.694   9.372   0.191  1.00 20.00    -0.192 NA
ENDROOT
TORSDOF 0
