REMARK  4 active torsions:
REMARK  status: ('A' for Active; 'I' for Inactive)
REMARK    1  A    between atoms: C4_4  and  C5_5 
REMARK    2  A    between atoms: C5_5  and  C7_7 
REMARK    3  A    between atoms: C6_6  and  C7_7 
REMARK    4  A    between atoms: C6_6  and  C8_8 
ROOT
HETATM    1  C2  UNL     1     -33.252   5.026   2.271  1.00 20.00     0.010 C 
HETATM    2  C7  UNL     1     -32.478   6.177   2.922  1.00 20.00    -0.017 C 
ENDROOT
BRANCH   2   3
HETATM    3  C5  UNL     1     -33.018   7.516   2.369  1.00 20.00     0.004 C 
BRANCH   3   4
HETATM    4  C4  UNL     1     -32.523   7.848   0.959  1.00 20.00    -0.004 C 
HETATM    5  C1  UNL     1     -33.149   9.134   0.441  1.00 20.00     0.005 C 
ENDBRANCH   3   4
ENDBRANCH   2   3
BRANCH   2   6
HETATM    6  C6  UNL     1     -32.559   6.125   4.466  1.00 20.00     0.024 C 
BRANCH   6   7
HETATM    7  C8  UNL     1     -33.962   6.271   5.076  1.00 20.00     0.078 C 
HETATM    8  C3  UNL     1     -33.880   6.764   6.517  1.00 20.00     0.026 C 
HETATM    9 CL9  UNL     1     -34.841   4.713   5.051  1.00 20.00    -0.125 Cl
ENDBRANCH   6   7
ENDBRANCH   2   6
TORSDOF 4
