REMARK  4 active torsions:
REMARK  status: ('A' for Active; 'I' for Inactive)
REMARK    1  A    between atoms: C5_5  and  C8_8 
REMARK    2  A    between atoms: C6_6  and  C9_9 
REMARK    3  A    between atoms: C9_9  and  C10_10 
REMARK    4  A    between atoms: C10_10  and  O11_11 
ROOT
HETATM    1  C1  UNL     1     -32.543   8.566   2.814  1.00 20.00     0.005 C 
HETATM    2  C2  UNL     1     -33.463   6.392   1.917  1.00 20.00     0.005 C 
HETATM    3  C3  UNL     1     -32.607   8.007   4.234  1.00 20.00     0.005 C 
HETATM    4  C4  UNL     1     -33.527   5.833   3.337  1.00 20.00     0.005 C 
HETATM    5  C5  UNL     1     -32.365   7.453   1.774  1.00 20.00    -0.015 C 
HETATM    6  C6  UNL     1     -33.706   6.946   4.377  1.00 20.00    -0.013 C 
ENDROOT
BRANCH   6   7
HETATM    7  C9  UNL     1     -33.716   6.368   5.791  1.00 20.00     0.030 C 
BRANCH   7   8
HETATM    8  C10 UNL     1     -35.028   5.667   6.095  1.00 20.00     0.164 C 
BRANCH   8   9
HETATM    9  O11 UNL     1     -35.193   4.599   5.173  1.00 20.00    -0.401 OA
HETATM   10  H31 UNL     1     -36.037   4.169   5.390  1.00 20.00     0.209 HD
ENDBRANCH   8   9
ENDBRANCH   7   8
ENDBRANCH   6   7
BRANCH   5  11
HETATM   11  C8  UNL     1     -32.355   8.032   0.360  1.00 20.00     0.000 C 
HETATM   12  C7  UNL     1     -33.644   8.712   0.034  1.00 20.00     0.005 C 
ENDBRANCH   5  11
TORSDOF 4
