REMARK  5 active torsions:
REMARK  status: ('A' for Active; 'I' for Inactive)
REMARK    1  A    between atoms: C6_6  and  C7_7 
REMARK    2  A    between atoms: C6_6  and  C9_9 
REMARK    3  A    between atoms: C7_7  and  C11_11 
REMARK    4  A    between atoms: C8_8  and  C9_9 
REMARK    5  A    between atoms: C8_8  and  C10_10 
ROOT
HETATM    1  C6  UNL     1     -32.257   7.366   2.228  1.00 20.00     0.005 C 
ENDROOT
BRANCH   1   2
HETATM    2  C7  UNL     1     -33.321   8.028   1.339  1.00 20.00     0.008 C 
BRANCH   2   3
HETATM    3  C11 UNL     1     -32.819   9.195   0.443  1.00 20.00    -0.051 C 
HETATM    4  C3  UNL     1     -33.975   9.825  -0.353  1.00 20.00     0.014 C 
HETATM    5  C4  UNL     1     -31.731   8.719  -0.533  1.00 20.00     0.014 C 
HETATM    6  C5  UNL     1     -32.216  10.277   1.361  1.00 20.00     0.014 C 
ENDBRANCH   2   3
ENDBRANCH   1   2
BRANCH   1   7
HETATM    7  C9  UNL     1     -32.820   6.259   3.147  1.00 20.00    -0.017 C 
HETATM    8  C1  UNL     1     -33.447   5.112   2.343  1.00 20.00     0.010 C 
BRANCH   7   9
HETATM    9  C8  UNL     1     -33.883   6.811   4.130  1.00 20.00     0.024 C 
BRANCH   9  10
HETATM   10  C10 UNL     1     -34.396   5.836   5.202  1.00 20.00     0.078 C 
HETATM   11  C2  UNL     1     -33.270   4.937   5.703  1.00 20.00     0.026 C 
HETATM   12 CL12 UNL     1     -35.713   4.808   4.563  1.00 20.00    -0.125 Cl
ENDBRANCH   9  10
ENDBRANCH   7   9
ENDBRANCH   1   7
TORSDOF 5
