REMARK  2 active torsions:
REMARK  status: ('A' for Active; 'I' for Inactive)
REMARK    1  A    between atoms: C1_1  and  C10_10 
REMARK    2  A    between atoms: C5_5  and  C10_10 
ROOT
HETATM    1  C2  UNL     1     -32.518   5.832   2.113  1.00 20.00     0.005 C 
HETATM    2  C3  UNL     1     -33.938   5.393   2.470  1.00 20.00     0.005 C 
HETATM    3  C4  UNL     1     -32.484   7.342   4.148  1.00 20.00     0.009 C 
HETATM    4  C5  UNL     1     -32.167   7.227   2.649  1.00 20.00    -0.008 C 
HETATM    5  C6  UNL     1     -34.233   5.480   3.977  1.00 20.00    -0.015 C 
HETATM    6  C7  UNL     1     -33.914   6.900   4.503  1.00 20.00    -0.015 C 
HETATM    7  C8  UNL     1     -33.513   4.359   4.737  1.00 20.00     0.010 C 
HETATM    8  C9  UNL     1     -34.157   7.045   6.007  1.00 20.00     0.010 C 
ENDROOT
BRANCH   4   9
HETATM    9  C10 UNL     1     -32.854   8.330   1.839  1.00 20.00     0.074 C 
BRANCH   9  10
HETATM   10  C1  UNL     1     -32.510   8.264   0.377  1.00 20.00     0.231 C 
HETATM   11  O11 UNL     1     -33.319   8.127  -0.534  1.00 20.00    -0.307 OA
ENDBRANCH   9  10
ENDBRANCH   4   9
TORSDOF 2
