REMARK  2 active torsions:
REMARK  status: ('A' for Active; 'I' for Inactive)
REMARK    1  A    between atoms: C5_5  and  C7_7 
REMARK    2  A    between atoms: C6_6  and  S11_11 
ROOT
HETATM    1  C1  UNL     1     -33.361   4.382   2.103  1.00 20.00     0.002 C 
HETATM    2  C2  UNL     1     -34.148   4.607   3.397  1.00 20.00     0.013 C 
HETATM    3  C3  UNL     1     -32.773   5.666   1.508  1.00 20.00     0.015 C 
HETATM    4  C4  UNL     1     -33.720   7.106   3.369  1.00 20.00     0.028 C 
HETATM    5  C5  UNL     1     -33.611   5.802   4.186  1.00 20.00     0.094 C 
HETATM    6  C6  UNL     1     -33.634   6.879   1.851  1.00 20.00     0.045 C 
ENDROOT
BRANCH   5   7
HETATM    7  C7  UNL     1     -34.322   5.943   5.530  1.00 20.00     0.391 C 
HETATM    8  F8  UNL     1     -33.799   6.968   6.220  1.00 20.00    -0.171 F 
HETATM    9  F9  UNL     1     -35.629   6.170   5.336  1.00 20.00    -0.171 F 
HETATM   10  F10 UNL     1     -34.176   4.818   6.246  1.00 20.00    -0.171 F 
ENDBRANCH   5   7
BRANCH   6  11
HETATM   11  S11 UNL     1     -32.998   8.375   1.023  1.00 20.00    -0.177 SA
HETATM   12  H22 UNL     1     -33.932   9.198   1.514  1.00 20.00     0.102 HD
ENDBRANCH   6  11
TORSDOF 2
