REMARK  0 active torsions:
REMARK  status: ('A' for Active; 'I' for Inactive)
ROOT
HETATM    1  C1  UNL     1     -32.757   8.381   1.253  1.00 20.00     0.088 C 
HETATM    2  C2  UNL     1     -33.303   7.024   3.166  1.00 20.00    -0.070 C 
HETATM    3  C3  UNL     1     -33.302   8.215   2.550  1.00 20.00     0.096 C 
HETATM    4  C4  UNL     1     -32.729   5.788   2.527  1.00 20.00     0.035 C 
HETATM    5  C5  UNL     1     -33.904   6.825   4.534  1.00 20.00     0.039 C 
HETATM    6  C6  UNL     1     -33.754   4.652   2.526  1.00 20.00     0.009 C 
HETATM    7  C7  UNL     1     -34.932   5.679   4.521  1.00 20.00    -0.011 C 
HETATM    8  C8  UNL     1     -34.348   4.372   3.922  1.00 20.00    -0.014 C 
HETATM    9  C9  UNL     1     -35.526   5.479   5.916  1.00 20.00     0.010 C 
HETATM   10  C10 UNL     1     -33.319   3.681   4.824  1.00 20.00     0.010 C 
HETATM   11  N11 UNL     1     -32.312   8.524   0.191  1.00 20.00    -0.192 NA
ENDROOT
TORSDOF 0
