REMARK  2 active torsions:
REMARK  status: ('A' for Active; 'I' for Inactive)
REMARK    1  A    between atoms: C4_4  and  C9_9 
REMARK    2  A    between atoms: C9_9  and  C10_10 
ROOT
HETATM    1  C1  UNL     1     -34.023   5.720   1.862  1.00 20.00     0.005 C 
HETATM    2  C2  UNL     1     -33.663   4.514   2.720  1.00 20.00     0.005 C 
HETATM    3  C3  UNL     1     -33.408   6.986   4.003  1.00 20.00     0.009 C 
HETATM    4  C4  UNL     1     -33.493   7.032   2.465  1.00 20.00    -0.013 C 
HETATM    5  C5  UNL     1     -34.272   4.598   4.137  1.00 20.00    -0.015 C 
HETATM    6  C6  UNL     1     -34.484   6.068   4.597  1.00 20.00    -0.015 C 
HETATM    7  C7  UNL     1     -33.431   3.743   5.090  1.00 20.00     0.010 C 
HETATM    8  C8  UNL     1     -34.576   6.245   6.113  1.00 20.00     0.010 C 
ENDROOT
BRANCH   4   9
HETATM    9  C9  UNL     1     -32.134   7.412   1.874  1.00 20.00     0.020 C 
BRANCH   9  10
HETATM   10  C10 UNL     1     -32.231   7.997   0.472  1.00 20.00     0.115 C 
HETATM   11 CL11 UNL     1     -33.193   9.492   0.436  1.00 20.00    -0.130 Cl
ENDBRANCH   9  10
ENDBRANCH   4   9
TORSDOF 2
