REMARK  3 active torsions:
REMARK  status: ('A' for Active; 'I' for Inactive)
REMARK    1  A    between atoms: C5_5  and  C7_7 
REMARK    2  A    between atoms: C6_6  and  C7_7 
REMARK    3  A    between atoms: C6_6  and  C8_8 
ROOT
HETATM    1  C1  UNL     1     -33.198   8.634   0.529  1.00 20.00     0.012 C 
HETATM    2  C2  UNL     1     -32.946   7.583   1.051  1.00 20.00    -0.117 C 
HETATM    3  C5  UNL     1     -32.633   6.293   1.684  1.00 20.00     0.097 C 
ENDROOT
BRANCH   3   4
HETATM    4  C7  UNL     1     -33.439   6.021   2.969  1.00 20.00    -0.006 C 
HETATM    5  C3  UNL     1     -32.906   6.849   4.146  1.00 20.00     0.011 C 
BRANCH   4   6
HETATM    6  C6  UNL     1     -33.512   4.530   3.372  1.00 20.00     0.025 C 
BRANCH   6   7
HETATM    7  C8  UNL     1     -34.764   4.104   4.154  1.00 20.00     0.078 C 
HETATM    8  C4  UNL     1     -34.607   4.411   5.640  1.00 20.00     0.026 C 
HETATM    9 CL9  UNL     1     -35.084   2.355   3.958  1.00 20.00    -0.125 Cl
ENDBRANCH   6   7
ENDBRANCH   4   6
ENDBRANCH   3   4
TORSDOF 3
