REMARK  4 active torsions:
REMARK  status: ('A' for Active; 'I' for Inactive)
REMARK    1  A    between atoms: C2_2  and  C6_6 
REMARK    2  A    between atoms: C6_6  and  C8_8 
REMARK    3  A    between atoms: C7_7  and  C8_8 
REMARK    4  A    between atoms: C7_7  and  C9_9 
ROOT
HETATM    1  C1  UNL     1     -33.298   8.475  -0.404  1.00 20.00    -0.111 C 
HETATM    2  C2  UNL     1     -32.878   8.085   0.652  1.00 20.00    -0.107 C 
HETATM    3  C3  UNL     1     -33.811   8.947  -1.689  1.00 20.00     0.112 C 
ENDROOT
BRANCH   2   4
HETATM    4  C6  UNL     1     -32.357   7.607   1.941  1.00 20.00     0.098 C 
BRANCH   4   5
HETATM    5  C8  UNL     1     -33.313   6.648   2.676  1.00 20.00    -0.006 C 
HETATM    6  C4  UNL     1     -33.304   5.256   2.028  1.00 20.00     0.011 C 
BRANCH   5   7
HETATM    7  C7  UNL     1     -33.050   6.513   4.196  1.00 20.00     0.020 C 
BRANCH   7   8
HETATM    8  C9  UNL     1     -34.237   6.049   5.045  1.00 20.00     0.054 C 
HETATM    9  C5  UNL     1     -34.017   6.354   6.522  1.00 20.00     0.022 C 
HETATM   10 BR10 UNL     1     -34.486   4.113   4.866  1.00 20.00    -0.092 Br
ENDBRANCH   7   8
ENDBRANCH   5   7
ENDBRANCH   4   5
ENDBRANCH   2   4
TORSDOF 4
