REMARK  3 active torsions:
REMARK  status: ('A' for Active; 'I' for Inactive)
REMARK    1  A    between atoms: C6_6  and  C7_7 
REMARK    2  A    between atoms: C6_6  and  C8_8 
REMARK    3  A    between atoms: C7_7  and  C9_9 
ROOT
HETATM    1  C1  UNL     1     -33.914   5.042   1.894  1.00 20.00     0.011 C 
HETATM    2  C7  UNL     1     -33.569   5.910   3.117  1.00 20.00    -0.010 C 
ENDROOT
BRANCH   2   3
HETATM    3  C6  UNL     1     -33.688   7.419   2.756  1.00 20.00     0.024 C 
BRANCH   3   4
HETATM    4  C8  UNL     1     -32.814   7.917   1.590  1.00 20.00     0.078 C 
HETATM    5  C2  UNL     1     -31.331   7.766   1.921  1.00 20.00     0.026 C 
HETATM    6 CL10 UNL     1     -33.147   9.634   1.220  1.00 20.00    -0.125 Cl
ENDBRANCH   3   4
ENDBRANCH   2   3
BRANCH   2   7
HETATM    7  C9  UNL     1     -34.397   5.512   4.404  1.00 20.00    -0.048 C 
HETATM    8  C3  UNL     1     -33.983   6.325   5.645  1.00 20.00     0.015 C 
HETATM    9  C4  UNL     1     -35.907   5.740   4.162  1.00 20.00     0.015 C 
HETATM   10  C5  UNL     1     -34.217   4.012   4.727  1.00 20.00     0.015 C 
ENDBRANCH   2   7
TORSDOF 3
