REMARK  3 active torsions:
REMARK  status: ('A' for Active; 'I' for Inactive)
REMARK    1  A    between atoms: C2_2  and  C3_3 
REMARK    2  A    between atoms: C2_2  and  S8_8 
REMARK    3  A    between atoms: C3_3  and  C4_4 
ROOT
HETATM    1  C3  UNL     1     -33.306   5.866   3.342  1.00 20.00     0.174 C 
HETATM    2 BR9  UNL     1     -33.316   4.241   2.223  1.00 20.00    -0.081 Br
ENDROOT
BRANCH   1   3
HETATM    3  C2  UNL     1     -33.601   7.055   2.428  1.00 20.00     0.098 C 
BRANCH   3   4
HETATM    4  S8  UNL     1     -32.134   7.627   1.519  1.00 20.00    -0.172 SA
HETATM    5  C1  UNL     1     -32.916   8.950   0.569  1.00 20.00     0.089 C 
ENDBRANCH   3   4
ENDBRANCH   1   3
BRANCH   1   6
HETATM    6  C4  UNL     1     -34.308   5.655   4.465  1.00 20.00     0.401 C 
HETATM    7  F5  UNL     1     -34.268   6.657   5.370  1.00 20.00    -0.170 F 
HETATM    8  F6  UNL     1     -34.073   4.496   5.121  1.00 20.00    -0.170 F 
HETATM    9  F7  UNL     1     -35.572   5.586   3.993  1.00 20.00    -0.170 F 
ENDBRANCH   1   6
TORSDOF 3
