REMARK  3 active torsions:
REMARK  status: ('A' for Active; 'I' for Inactive)
REMARK    1  A    between atoms: C6_6  and  C7_7 
REMARK    2  A    between atoms: C6_6  and  C8_8 
REMARK    3  A    between atoms: C7_7  and  C9_9 
ROOT
HETATM    1  C1  UNL     1     -32.915   4.627   2.622  1.00 20.00     0.011 C 
HETATM    2  C7  UNL     1     -32.869   5.785   3.634  1.00 20.00    -0.010 C 
ENDROOT
BRANCH   2   3
HETATM    3  C6  UNL     1     -32.430   7.100   2.928  1.00 20.00     0.024 C 
BRANCH   3   4
HETATM    4  C8  UNL     1     -33.046   7.374   1.543  1.00 20.00     0.078 C 
HETATM    5  C2  UNL     1     -33.012   8.865   1.220  1.00 20.00     0.026 C 
HETATM    6 CL10 UNL     1     -32.171   6.489   0.259  1.00 20.00    -0.125 Cl
ENDBRANCH   3   4
ENDBRANCH   2   3
BRANCH   2   7
HETATM    7  C9  UNL     1     -34.214   5.938   4.451  1.00 20.00    -0.048 C 
HETATM    8  C3  UNL     1     -34.129   7.041   5.523  1.00 20.00     0.015 C 
HETATM    9  C4  UNL     1     -35.383   6.282   3.500  1.00 20.00     0.015 C 
HETATM   10  C5  UNL     1     -34.582   4.611   5.151  1.00 20.00     0.015 C 
ENDBRANCH   2   7
TORSDOF 3
