REMARK  2 active torsions:
REMARK  status: ('A' for Active; 'I' for Inactive)
REMARK    1  A    between atoms: C1_1  and  C5_5 
REMARK    2  A    between atoms: C1_1  and  C11_11 
ROOT
HETATM    1  C2  UNL     1     -33.999   5.434   2.169  1.00 20.00     0.012 C 
HETATM    2  C3  UNL     1     -34.321   4.521   3.347  1.00 20.00     0.005 C 
HETATM    3  C4  UNL     1     -33.384   7.282   3.770  1.00 20.00     0.016 C 
HETATM    4  C5  UNL     1     -32.950   6.476   2.546  1.00 20.00     0.056 C 
HETATM    5  C6  UNL     1     -34.767   5.314   4.588  1.00 20.00    -0.015 C 
HETATM    6  C7  UNL     1     -33.706   6.375   4.971  1.00 20.00    -0.014 C 
HETATM    7  C8  UNL     1     -35.062   4.340   5.732  1.00 20.00     0.010 C 
HETATM    8  C9  UNL     1     -34.142   7.240   6.157  1.00 20.00     0.010 C 
ENDROOT
BRANCH   4   9
HETATM    9  C1  UNL     1     -32.722   7.408   1.396  1.00 20.00     0.130 C 
HETATM   10  O12 UNL     1     -32.338   6.987   0.305  1.00 20.00    -0.298 OA
BRANCH   9  11
HETATM   11  C11 UNL     1     -32.991   8.877   1.662  1.00 20.00     0.074 C 
HETATM   12  C10 UNL     1     -32.706   9.752   0.455  1.00 20.00     0.013 C 
ENDBRANCH   9  11
ENDBRANCH   4   9
TORSDOF 2
