REMARK  3 active torsions:
REMARK  status: ('A' for Active; 'I' for Inactive)
REMARK    1  A    between atoms: C1_1  and  C12_12 
REMARK    2  A    between atoms: C5_5  and  C11_11 
REMARK    3  A    between atoms: C11_11  and  C12_12 
ROOT
HETATM    1  C2  UNL     1     -33.278   4.659   2.789  1.00 20.00     0.005 C 
HETATM    2  C3  UNL     1     -34.589   4.690   3.570  1.00 20.00     0.005 C 
HETATM    3  C4  UNL     1     -32.501   6.724   4.010  1.00 20.00     0.009 C 
HETATM    4  C5  UNL     1     -32.638   6.043   2.641  1.00 20.00    -0.013 C 
HETATM    5  C6  UNL     1     -34.428   5.357   4.946  1.00 20.00    -0.015 C 
HETATM    6  C7  UNL     1     -33.818   6.772   4.808  1.00 20.00    -0.015 C 
HETATM    7  C8  UNL     1     -35.782   5.369   5.663  1.00 20.00     0.010 C 
HETATM    8  C9  UNL     1     -33.557   7.431   6.167  1.00 20.00     0.010 C 
ENDROOT
BRANCH   4   9
HETATM    9  C11 UNL     1     -33.400   6.919   1.643  1.00 20.00     0.015 C 
BRANCH   9  10
HETATM   10  C12 UNL     1     -32.785   8.315   1.503  1.00 20.00     0.043 C 
HETATM   11  C10 UNL     1     -31.332   8.215   1.044  1.00 20.00     0.017 C 
BRANCH  10  12
HETATM   12  C1  UNL     1     -33.524   9.194   0.510  1.00 20.00     0.235 C 
HETATM   13  O13 UNL     1     -33.033   9.673  -0.507  1.00 20.00    -0.306 OA
ENDBRANCH  10  12
ENDBRANCH   9  10
ENDBRANCH   4   9
TORSDOF 3
