REMARK  1 active torsions:
REMARK  status: ('A' for Active; 'I' for Inactive)
REMARK    1  A    between atoms: C7_7  and  C8_8 
ROOT
HETATM    1  C1  UNL     1     -32.812   7.280   1.645  1.00 20.00     0.064 C 
HETATM    2  C2  UNL     1     -34.287   4.660   2.401  1.00 20.00     0.002 C 
HETATM    3  C3  UNL     1     -32.797   4.979   2.556  1.00 20.00     0.019 C 
HETATM    4  C4  UNL     1     -35.216   5.676   3.063  1.00 20.00     0.013 C 
HETATM    5  C5  UNL     1     -33.259   6.964   4.073  1.00 20.00     0.032 C 
HETATM    6  C6  UNL     1     -32.507   6.455   2.830  1.00 20.00     0.093 C 
HETATM    7  C7  UNL     1     -34.631   6.304   4.330  1.00 20.00     0.095 C 
HETATM    8  N9  UNL     1     -33.051   7.928   0.712  1.00 20.00    -0.197 NA
ENDROOT
BRANCH   7   9
HETATM    9  C8  UNL     1     -34.557   5.285   5.472  1.00 20.00     0.391 C 
HETATM   10  F10 UNL     1     -35.776   4.783   5.715  1.00 20.00    -0.171 F 
HETATM   11  F11 UNL     1     -33.729   4.285   5.138  1.00 20.00    -0.171 F 
HETATM   12  F12 UNL     1     -34.099   5.879   6.583  1.00 20.00    -0.171 F 
ENDBRANCH   7   9
TORSDOF 1
