REMARK  0 active torsions:
REMARK  status: ('A' for Active; 'I' for Inactive)
ROOT
HETATM    1  C1  UNL     1     -32.825   8.151   0.402  1.00 20.00     0.088 C 
HETATM    2  C2  UNL     1     -32.738   6.769   2.372  1.00 20.00    -0.070 C 
HETATM    3  C3  UNL     1     -33.012   6.915   1.068  1.00 20.00     0.096 C 
HETATM    4  C4  UNL     1     -32.216   7.909   3.208  1.00 20.00     0.035 C 
HETATM    5  C5  UNL     1     -32.969   5.478   3.107  1.00 20.00     0.039 C 
HETATM    6  C6  UNL     1     -32.454   7.690   4.708  1.00 20.00     0.009 C 
HETATM    7  C7  UNL     1     -33.946   5.658   4.288  1.00 20.00    -0.011 C 
HETATM    8  C8  UNL     1     -33.825   7.050   4.972  1.00 20.00    -0.014 C 
HETATM    9  C9  UNL     1     -35.393   5.412   3.839  1.00 20.00     0.010 C 
HETATM   10  C10 UNL     1     -34.089   6.949   6.476  1.00 20.00     0.010 C 
HETATM   11  N11 UNL     1     -32.674   9.161  -0.150  1.00 20.00    -0.192 NA
ENDROOT
TORSDOF 0
