REMARK  1 active torsions:
REMARK  status: ('A' for Active; 'I' for Inactive)
REMARK    1  A    between atoms: C6_6  and  C8_8 
ROOT
HETATM    1  C1  UNL     1     -34.471   7.310   3.050  1.00 20.00     0.016 C 
HETATM    2  C2  UNL     1     -32.828   5.452   2.527  1.00 20.00     0.016 C 
HETATM    3  C3  UNL     1     -35.463   6.284   3.597  1.00 20.00     0.041 C 
HETATM    4  C4  UNL     1     -33.817   4.421   3.072  1.00 20.00     0.041 C 
HETATM    5  C5  UNL     1     -34.542   4.815   5.549  1.00 20.00     0.207 A 
HETATM    6  C6  UNL     1     -33.554   6.694   1.978  1.00 20.00     0.093 C 
HETATM    7  C7  UNL     1     -34.731   5.064   4.071  1.00 20.00     0.082 A 
HETATM    8  O9  UNL     1     -35.554   4.135   4.791  1.00 20.00    -0.375 OA
ENDROOT
BRANCH   6   9
HETATM    9  C8  UNL     1     -32.547   7.726   1.474  1.00 20.00     0.391 C 
HETATM   10  F10 UNL     1     -33.192   8.787   0.967  1.00 20.00    -0.171 F 
HETATM   11  F11 UNL     1     -31.764   8.134   2.484  1.00 20.00    -0.171 F 
HETATM   12  F12 UNL     1     -31.777   7.187   0.517  1.00 20.00    -0.171 F 
ENDBRANCH   6   9
TORSDOF 1
