REMARK  1 active torsions:
REMARK  status: ('A' for Active; 'I' for Inactive)
REMARK    1  A    between atoms: C5_5  and  C7_7 
ROOT
HETATM    1  C1  UNL     1     -34.065   3.981   3.981  1.00 20.00     0.002 C 
HETATM    2  C2  UNL     1     -32.936   4.794   3.367  1.00 20.00     0.013 C 
HETATM    3  C3  UNL     1     -34.785   4.715   5.115  1.00 20.00     0.020 C 
HETATM    4  C4  UNL     1     -34.583   6.754   3.609  1.00 20.00     0.033 C 
HETATM    5  C5  UNL     1     -33.451   6.116   2.778  1.00 20.00     0.095 C 
HETATM    6  C6  UNL     1     -34.692   6.244   5.047  1.00 20.00     0.083 C 
HETATM    7 CL11 UNL     1     -33.316   6.837   6.032  1.00 20.00    -0.125 Cl
ENDROOT
BRANCH   5   8
HETATM    8  C7  UNL     1     -32.293   7.087   2.541  1.00 20.00     0.391 C 
HETATM    9  F8  UNL     1     -32.742   8.200   1.942  1.00 20.00    -0.171 F 
HETATM   10  F9  UNL     1     -31.727   7.420   3.711  1.00 20.00    -0.171 F 
HETATM   11  F10 UNL     1     -31.367   6.515   1.757  1.00 20.00    -0.171 F 
ENDBRANCH   5   8
TORSDOF 1
