REMARK  4 active torsions:
REMARK  status: ('A' for Active; 'I' for Inactive)
REMARK    1  A    between atoms: C5_5  and  C6_6 
REMARK    2  A    between atoms: C6_6  and  C8_8 
REMARK    3  A    between atoms: C7_7  and  C8_8 
REMARK    4  A    between atoms: C7_7  and  C9_9 
ROOT
HETATM    1  C1  UNL     1     -34.935   5.006   6.330  1.00 20.00     0.012 C 
HETATM    2  C2  UNL     1     -35.064   5.070   5.138  1.00 20.00    -0.117 C 
HETATM    3  C5  UNL     1     -35.226   5.148   3.680  1.00 20.00     0.093 C 
ENDROOT
BRANCH   3   4
HETATM    4  C6  UNL     1     -33.904   5.428   2.958  1.00 20.00     0.016 C 
BRANCH   4   5
HETATM    5  C8  UNL     1     -33.225   6.778   3.294  1.00 20.00    -0.016 C 
HETATM    6  C3  UNL     1     -34.313   7.847   3.460  1.00 20.00     0.010 C 
BRANCH   5   7
HETATM    7  C7  UNL     1     -32.188   7.177   2.217  1.00 20.00     0.024 C 
BRANCH   7   8
HETATM    8  C9  UNL     1     -32.753   7.800   0.931  1.00 20.00     0.078 C 
HETATM    9  C4  UNL     1     -31.772   7.643  -0.226  1.00 20.00     0.026 C 
HETATM   10 CL10 UNL     1     -33.100   9.540   1.159  1.00 20.00    -0.125 Cl
ENDBRANCH   7   8
ENDBRANCH   5   7
ENDBRANCH   4   5
ENDBRANCH   3   4
TORSDOF 4
