REMARK  4 active torsions:
REMARK  status: ('A' for Active; 'I' for Inactive)
REMARK    1  A    between atoms: C1_1  and  C8_8 
REMARK    2  A    between atoms: C1_1  and  C9_9 
REMARK    3  A    between atoms: C4_4  and  C8_8 
REMARK    4  A    between atoms: C9_9  and  C10_10 
ROOT
HETATM    1  C1  UNL     1     -33.296   6.372   2.778  1.00 20.00     0.128 C 
HETATM    2  O11 UNL     1     -33.760   5.427   2.141  1.00 20.00    -0.298 OA
ENDROOT
BRANCH   1   3
HETATM    3  C8  UNL     1     -32.360   7.390   2.153  1.00 20.00     0.082 C 
BRANCH   3   4
HETATM    4  C4  UNL     1     -32.977   8.163   1.030  1.00 20.00    -0.008 A 
HETATM    5  C2  UNL     1     -33.708   9.447   1.306  1.00 20.00     0.005 A 
HETATM    6  C3  UNL     1     -32.382   9.474   0.598  1.00 20.00     0.005 A 
ENDBRANCH   3   4
ENDBRANCH   1   3
BRANCH   1   7
HETATM    7  C9  UNL     1     -33.624   6.563   4.251  1.00 20.00     0.086 C 
BRANCH   7   8
HETATM    8  C10 UNL     1     -34.640   5.554   4.832  1.00 20.00    -0.045 C 
HETATM    9  C5  UNL     1     -34.933   5.844   6.314  1.00 20.00     0.015 C 
HETATM   10  C6  UNL     1     -34.137   4.109   4.688  1.00 20.00     0.015 C 
HETATM   11  C7  UNL     1     -35.956   5.694   4.042  1.00 20.00     0.015 C 
ENDBRANCH   7   8
ENDBRANCH   1   7
TORSDOF 4
