REMARK  4 active torsions:
REMARK  status: ('A' for Active; 'I' for Inactive)
REMARK    1  A    between atoms: C5_5  and  C7_7 
REMARK    2  A    between atoms: C6_6  and  C8_8 
REMARK    3  A    between atoms: C7_7  and  C8_8 
REMARK    4  A    between atoms: C8_8  and  O9_9 
ROOT
HETATM    1  C8  UNL     1     -32.504   6.553   3.638  1.00 20.00     0.122 C 
ENDROOT
BRANCH   1   2
HETATM    2  C6  UNL     1     -33.875   6.672   4.288  1.00 20.00     0.014 A 
HETATM    3  C3  UNL     1     -34.938   5.647   4.007  1.00 20.00     0.007 A 
HETATM    4  C4  UNL     1     -34.290   5.705   5.362  1.00 20.00     0.007 A 
ENDBRANCH   1   2
BRANCH   1   5
HETATM    5  C7  UNL     1     -32.605   6.631   2.113  1.00 20.00     0.036 C 
BRANCH   5   6
HETATM    6  C5  UNL     1     -33.248   7.930   1.643  1.00 20.00    -0.012 A 
HETATM    7  C1  UNL     1     -32.399   9.140   1.368  1.00 20.00     0.005 A 
HETATM    8  C2  UNL     1     -33.050   8.404   0.230  1.00 20.00     0.005 A 
ENDBRANCH   5   6
ENDBRANCH   1   5
BRANCH   1   9
HETATM    9  O9  UNL     1     -31.679   7.616   4.106  1.00 20.00    -0.395 OA
HETATM   10  H23 UNL     1     -31.620   7.517   5.069  1.00 20.00     0.210 HD
ENDBRANCH   1   9
TORSDOF 4
