REMARK  2 active torsions:
REMARK  status: ('A' for Active; 'I' for Inactive)
REMARK    1  A    between atoms: C5_5  and  C6_6 
REMARK    2  A    between atoms: C6_6  and  C7_7 
ROOT
HETATM    1  C1  UNL     1     -34.201   4.248   4.385  1.00 20.00     0.027 C 
HETATM    2  C2  UNL     1     -34.026   5.290   3.285  1.00 20.00     0.009 C 
HETATM    3  C3  UNL     1     -34.926   4.846   5.583  1.00 20.00     0.167 C 
HETATM    4  C4  UNL     1     -34.179   7.038   5.081  1.00 20.00     0.172 C 
HETATM    5  C5  UNL     1     -33.400   6.571   3.849  1.00 20.00     0.010 C 
HETATM    6  O8  UNL     1     -34.241   6.002   6.063  1.00 20.00    -0.391 OA
ENDROOT
BRANCH   5   7
HETATM    7  C6  UNL     1     -33.335   7.665   2.790  1.00 20.00     0.017 C 
BRANCH   7   8
HETATM    8  C7  UNL     1     -32.464   7.243   1.622  1.00 20.00     0.085 C 
HETATM    9 BR9  UNL     1     -32.457   8.644   0.271  1.00 20.00    -0.096 Br
ENDBRANCH   7   8
ENDBRANCH   5   7
TORSDOF 2
