REMARK  4 active torsions:
REMARK  status: ('A' for Active; 'I' for Inactive)
REMARK    1  A    between atoms: C3_3  and  C4_4 
REMARK    2  A    between atoms: C4_4  and  C5_5 
REMARK    3  A    between atoms: C5_5  and  C6_6 
REMARK    4  A    between atoms: C5_5  and  O7_7 
ROOT
HETATM    1  C5  UNL     1     -33.535   5.886   3.282  1.00 20.00     0.226 C 
ENDROOT
BRANCH   1   2
HETATM    2  C4  UNL     1     -33.742   7.382   3.033  1.00 20.00     0.045 C 
BRANCH   2   3
HETATM    3  C3  UNL     1     -32.655   7.968   2.180  1.00 20.00    -0.012 A 
HETATM    4  C1  UNL     1     -32.793   7.984   0.683  1.00 20.00     0.005 A 
HETATM    5  C2  UNL     1     -32.877   9.269   1.459  1.00 20.00     0.005 A 
ENDBRANCH   2   3
ENDBRANCH   1   2
BRANCH   1   6
HETATM    6  C6  UNL     1     -34.354   5.397   4.460  1.00 20.00     0.413 C 
HETATM    7  F8  UNL     1     -33.981   6.000   5.609  1.00 20.00    -0.168 F 
HETATM    8  F9  UNL     1     -34.215   4.064   4.629  1.00 20.00    -0.168 F 
HETATM    9  F10 UNL     1     -35.668   5.647   4.269  1.00 20.00    -0.168 F 
ENDBRANCH   1   6
BRANCH   1  10
HETATM   10  O7  UNL     1     -33.943   5.168   2.119  1.00 20.00    -0.387 OA
HETATM   11  H19 UNL     1     -33.387   5.484   1.391  1.00 20.00     0.210 HD
ENDBRANCH   1  10
TORSDOF 4
