REMARK  2 active torsions:
REMARK  status: ('A' for Active; 'I' for Inactive)
REMARK    1  A    between atoms: C4_4  and  C5_5 
REMARK    2  A    between atoms: C5_5  and  C7_7 
ROOT
HETATM    1  C3  UNL     1     -34.201   4.337   4.328  1.00 20.00     0.207 A 
HETATM    2  C5  UNL     1     -34.211   5.847   4.311  1.00 20.00     0.085 A 
HETATM    3  O8  UNL     1     -35.330   5.081   3.845  1.00 20.00    -0.375 OA
ENDROOT
BRANCH   2   4
HETATM    4  C4  UNL     1     -33.487   6.644   3.235  1.00 20.00     0.022 A 
HETATM    5  C1  UNL     1     -32.018   6.955   3.306  1.00 20.00     0.008 A 
HETATM    6  C2  UNL     1     -32.536   6.011   2.257  1.00 20.00     0.008 A 
ENDBRANCH   2   4
BRANCH   2   7
HETATM    7  C7  UNL     1     -34.487   6.562   5.600  1.00 20.00     0.036 C 
HETATM    8  C6  UNL     1     -35.284   5.729   6.566  1.00 20.00     0.008 C 
ENDBRANCH   2   7
TORSDOF 2
