REMARK  3 active torsions:
REMARK  status: ('A' for Active; 'I' for Inactive)
REMARK    1  A    between atoms: C1_1  and  C4_4 
REMARK    2  A    between atoms: C1_1  and  C6_6 
REMARK    3  A    between atoms: N7_7  and  O8_8 
ROOT
HETATM    1  C1  UNL     1     -34.146   6.243   4.596  1.00 20.00     0.043 C 
HETATM    2  N7  UNL     1     -34.994   5.505   5.247  1.00 20.00    -0.145 NA
ENDROOT
BRANCH   1   3
HETATM    3  C4  UNL     1     -34.153   6.164   3.089  1.00 20.00     0.036 A 
HETATM    4  C2  UNL     1     -32.892   6.474   2.370  1.00 20.00     0.011 A 
HETATM    5  C3  UNL     1     -33.391   5.062   2.449  1.00 20.00     0.011 A 
ENDBRANCH   1   3
BRANCH   1   6
HETATM    6  C6  UNL     1     -33.118   7.158   5.237  1.00 20.00     0.053 C 
HETATM    7  C5  UNL     1     -33.643   7.722   6.544  1.00 20.00     0.011 C 
ENDBRANCH   1   6
BRANCH   2   8
HETATM    8  O8  UNL     1     -35.782   4.747   4.380  1.00 20.00    -0.266 OA
HETATM    9  H19 UNL     1     -36.348   4.263   5.004  1.00 20.00     0.247 HD
ENDBRANCH   2   8
TORSDOF 3
