REMARK  1 active torsions:
REMARK  status: ('A' for Active; 'I' for Inactive)
REMARK    1  A    between atoms: C5_5  and  C9_9 
ROOT
HETATM    1  C1  UNL     1     -32.756   7.853   0.833  1.00 20.00     0.012 C 
HETATM    2  C2  UNL     1     -32.748   7.566   1.998  1.00 20.00    -0.117 C 
HETATM    3  C9  UNL     1     -32.728   7.216   3.422  1.00 20.00     0.098 C 
ENDROOT
BRANCH   3   4
HETATM    4  C5  UNL     1     -34.127   6.869   3.922  1.00 20.00     0.002 C 
HETATM    5  C3  UNL     1     -34.229   7.022   5.452  1.00 20.00     0.007 C 
HETATM    6  C4  UNL     1     -34.992   5.795   5.942  1.00 20.00     0.021 C 
HETATM    7  C7  UNL     1     -34.597   4.695   4.963  1.00 20.00     0.086 C 
HETATM    8  C6  UNL     1     -34.628   5.435   3.616  1.00 20.00     0.005 C 
HETATM    9 CL10 UNL     1     -32.988   4.042   5.380  1.00 20.00    -0.125 Cl
HETATM   10  C8  UNL     1     -33.974   4.711   2.447  1.00 20.00     0.012 C 
ENDBRANCH   3   4
TORSDOF 1
