REMARK  1 active torsions:
REMARK  status: ('A' for Active; 'I' for Inactive)
REMARK    1  A    between atoms: C6_6  and  N9_9 
ROOT
HETATM    1  C1  UNL     1     -32.884   7.554   1.361  1.00 20.00     0.158 C 
HETATM    2  N9  UNL     1     -33.602   6.869   1.989  1.00 20.00    -0.270 NA
HETATM    3  S10 UNL     1     -31.935   8.493   0.493  1.00 20.00    -0.055 SA
ENDROOT
BRANCH   2   4
HETATM    4  C6  UNL     1     -32.937   6.052   3.009  1.00 20.00     0.113 C 
HETATM    5  C3  UNL     1     -33.207   4.569   2.734  1.00 20.00     0.028 C 
HETATM    6  C2  UNL     1     -34.176   4.123   3.822  1.00 20.00     0.007 C 
HETATM    7  C4  UNL     1     -33.770   4.976   5.022  1.00 20.00    -0.013 C 
HETATM    8  C5  UNL     1     -33.558   6.358   4.385  1.00 20.00     0.010 C 
HETATM    9  C7  UNL     1     -34.815   4.962   6.127  1.00 20.00     0.010 C 
HETATM   10  C8  UNL     1     -32.682   7.279   5.225  1.00 20.00     0.012 C 
ENDBRANCH   2   4
TORSDOF 1
