REMARK  2 active torsions:
REMARK  status: ('A' for Active; 'I' for Inactive)
REMARK    1  A    between atoms: C7_7  and  C10_10 
REMARK    2  A    between atoms: C9_9  and  C10_10 
ROOT
HETATM    1  C1  UNL     1     -33.466   9.328   0.846  1.00 20.00     0.012 C 
HETATM    2  C2  UNL     1     -32.859   8.308   1.023  1.00 20.00    -0.117 C 
HETATM    3  C9  UNL     1     -32.111   7.062   1.237  1.00 20.00     0.093 C 
ENDROOT
BRANCH   3   4
HETATM    4  C10 UNL     1     -33.017   6.008   1.841  1.00 20.00     0.017 C 
BRANCH   4   5
HETATM    5  C7  UNL     1     -33.581   6.482   3.172  1.00 20.00    -0.002 C 
HETATM    6  C5  UNL     1     -32.485   6.827   4.183  1.00 20.00     0.013 C 
HETATM    7  C4  UNL     1     -33.222   6.951   5.510  1.00 20.00     0.079 C 
HETATM    8  C3  UNL     1     -34.335   5.947   5.346  1.00 20.00     0.131 C 
HETATM    9  C6  UNL     1     -34.485   5.477   3.912  1.00 20.00     0.055 C 
HETATM   10  O11 UNL     1     -35.040   5.562   6.271  1.00 20.00    -0.298 OA
HETATM   11  C8  UNL     1     -34.080   4.014   3.809  1.00 20.00     0.018 C 
ENDBRANCH   4   5
ENDBRANCH   3   4
TORSDOF 2
