REMARK  1 active torsions:
REMARK  status: ('A' for Active; 'I' for Inactive)
REMARK    1  A    between atoms: C4_4  and  C7_7 
ROOT
HETATM    1  C5  UNL     1     -32.102   7.092   3.569  1.00 20.00     0.011 C 
HETATM    2  C6  UNL     1     -33.264   6.964   4.560  1.00 20.00     0.021 C 
HETATM    3  C7  UNL     1     -32.583   6.502   2.228  1.00 20.00     0.025 C 
HETATM    4  C8  UNL     1     -33.790   5.611   2.614  1.00 20.00     0.008 C 
HETATM    5  C9  UNL     1     -34.436   6.415   3.752  1.00 20.00     0.086 C 
HETATM    6  C10 UNL     1     -33.315   4.207   3.010  1.00 20.00     0.012 C 
HETATM    7 CL12 UNL     1     -35.582   5.511   4.757  1.00 20.00    -0.125 Cl
ENDROOT
BRANCH   3   8
HETATM    8  C4  UNL     1     -32.953   7.512   1.152  1.00 20.00    -0.029 A 
HETATM    9  C1  UNL     1     -33.442   8.826   1.348  1.00 20.00     0.034 A 
HETATM   10  C2  UNL     1     -33.632   9.354   0.093  1.00 20.00     0.142 A 
HETATM   11  O11 UNL     1     -33.290   8.450  -0.863  1.00 20.00    -0.334 OA
HETATM   12  C3  UNL     1     -32.878   7.332  -0.209  1.00 20.00     0.148 A 
ENDBRANCH   3   8
TORSDOF 1
