REMARK  2 active torsions:
REMARK  status: ('A' for Active; 'I' for Inactive)
REMARK    1  A    between atoms: C3_3  and  C8_8 
REMARK    2  A    between atoms: C8_8  and  C9_9 
ROOT
HETATM    1  C1  UNL     1     -33.595   5.479   2.285  1.00 20.00     0.006 C 
HETATM    2  C2  UNL     1     -34.388   4.696   3.327  1.00 20.00     0.021 C 
HETATM    3  C3  UNL     1     -32.884   6.619   3.047  1.00 20.00    -0.009 C 
HETATM    4  C4  UNL     1     -33.344   6.472   4.519  1.00 20.00     0.004 C 
HETATM    5  C5  UNL     1     -34.678   5.732   4.403  1.00 20.00     0.086 C 
HETATM    6  C6  UNL     1     -33.426   7.760   5.327  1.00 20.00     0.012 C 
HETATM    7 CL10 UNL     1     -35.188   4.972   5.921  1.00 20.00    -0.125 Cl
ENDROOT
BRANCH   3   8
HETATM    8  C8  UNL     1     -33.182   7.968   2.396  1.00 20.00     0.005 C 
BRANCH   8   9
HETATM    9  C9  UNL     1     -32.669   8.014   0.961  1.00 20.00    -0.004 C 
HETATM   10  C7  UNL     1     -32.988   9.347   0.304  1.00 20.00     0.005 C 
ENDBRANCH   8   9
ENDBRANCH   3   8
TORSDOF 2
