REMARK  1 active torsions:
REMARK  status: ('A' for Active; 'I' for Inactive)
REMARK    1  A    between atoms: C5_5  and  C8_8 
ROOT
HETATM    1  C1  UNL     1     -34.783   5.971   6.436  1.00 20.00     0.018 A 
HETATM    2  C2  UNL     1     -34.428   6.787   5.366  1.00 20.00     0.010 A 
HETATM    3  C3  UNL     1     -35.210   4.676   6.176  1.00 20.00     0.087 A 
HETATM    4  C4  UNL     1     -34.942   4.995   3.865  1.00 20.00     0.095 A 
HETATM    5  C5  UNL     1     -34.507   6.298   4.065  1.00 20.00    -0.038 A 
HETATM    6  N12 UNL     1     -35.277   4.231   4.914  1.00 20.00    -0.375 N 
HETATM    7  H28 UNL     1     -35.594   3.277   4.745  1.00 20.00     0.164 HD
ENDROOT
BRANCH   5   8
HETATM    8  C8  UNL     1     -34.126   7.170   2.887  1.00 20.00     0.025 C 
HETATM    9  C6  UNL     1     -33.652   8.606   3.180  1.00 20.00     0.011 C 
HETATM   10  C7  UNL     1     -32.840   9.050   1.958  1.00 20.00     0.021 C 
HETATM   11  C10 UNL     1     -32.716   7.828   1.047  1.00 20.00     0.086 C 
HETATM   12  C9  UNL     1     -33.010   6.625   1.959  1.00 20.00     0.008 C 
HETATM   13 CL13 UNL     1     -33.924   7.925  -0.275  1.00 20.00    -0.125 Cl
HETATM   14  C11 UNL     1     -31.740   6.194   2.704  1.00 20.00     0.012 C 
ENDBRANCH   5   8
TORSDOF 1
