REMARK  2 active torsions:
REMARK  status: ('A' for Active; 'I' for Inactive)
REMARK    1  A    between atoms: C2_2  and  C10_10 
REMARK    2  A    between atoms: C7_7  and  C10_10 
ROOT
HETATM    1  C1  UNL     1     -33.196   8.042  -0.335  1.00 20.00    -0.111 C 
HETATM    2  C2  UNL     1     -32.842   7.947   0.809  1.00 20.00    -0.107 C 
HETATM    3  C8  UNL     1     -33.626   8.158  -1.727  1.00 20.00     0.112 C 
ENDROOT
BRANCH   2   4
HETATM    4  C10 UNL     1     -32.399   7.835   2.200  1.00 20.00     0.099 C 
BRANCH   4   5
HETATM    5  C7  UNL     1     -33.505   7.270   3.078  1.00 20.00     0.008 C 
HETATM    6  C5  UNL     1     -33.088   7.157   4.546  1.00 20.00     0.013 C 
HETATM    7  C4  UNL     1     -34.167   6.289   5.179  1.00 20.00     0.079 C 
HETATM    8  C3  UNL     1     -34.547   5.380   4.039  1.00 20.00     0.131 C 
HETATM    9  C6  UNL     1     -33.996   5.857   2.708  1.00 20.00     0.056 C 
HETATM   10  O11 UNL     1     -35.230   4.372   4.176  1.00 20.00    -0.298 OA
HETATM   11  C9  UNL     1     -32.931   4.886   2.219  1.00 20.00     0.018 C 
ENDBRANCH   4   5
ENDBRANCH   2   4
TORSDOF 2
