REMARK  2 active torsions:
REMARK  status: ('A' for Active; 'I' for Inactive)
REMARK    1  A    between atoms: C5_5  and  C9_9 
REMARK    2  A    between atoms: C9_9  and  C10_10 
ROOT
HETATM    1  C1  UNL     1     -34.730   5.368   5.164  1.00 20.00     0.131 C 
HETATM    2  C2  UNL     1     -34.636   4.310   4.094  1.00 20.00     0.079 C 
HETATM    3  C3  UNL     1     -34.360   5.143   2.849  1.00 20.00     0.013 C 
HETATM    4  C4  UNL     1     -34.264   6.724   4.668  1.00 20.00     0.055 C 
HETATM    5  C5  UNL     1     -33.550   6.337   3.362  1.00 20.00    -0.003 C 
HETATM    6  C6  UNL     1     -33.358   7.425   5.663  1.00 20.00     0.018 C 
HETATM    7  O11 UNL     1     -35.134   5.148   6.299  1.00 20.00    -0.298 OA
ENDROOT
BRANCH   5   8
HETATM    8  C9  UNL     1     -33.492   7.472   2.351  1.00 20.00     0.009 C 
BRANCH   8   9
HETATM    9  C10 UNL     1     -32.398   7.291   1.284  1.00 20.00    -0.022 C 
HETATM   10  C7  UNL     1     -32.591   6.015   0.463  1.00 20.00     0.009 C 
HETATM   11  C8  UNL     1     -32.375   8.506   0.353  1.00 20.00     0.009 C 
ENDBRANCH   8   9
ENDBRANCH   5   8
TORSDOF 2
