REMARK  2 active torsions:
REMARK  status: ('A' for Active; 'I' for Inactive)
REMARK    1  A    between atoms: C3_3  and  C9_9 
REMARK    2  A    between atoms: C9_9  and  C10_10 
ROOT
HETATM    1  C1  UNL     1     -33.405   5.899   1.880  1.00 20.00     0.006 C 
HETATM    2  C2  UNL     1     -34.232   5.004   2.788  1.00 20.00     0.016 C 
HETATM    3  C3  UNL     1     -33.781   7.299   2.362  1.00 20.00    -0.009 C 
HETATM    4  C4  UNL     1     -33.861   7.167   3.903  1.00 20.00    -0.000 C 
HETATM    5  C5  UNL     1     -34.092   5.662   4.155  1.00 20.00     0.062 C 
HETATM    6  C6  UNL     1     -32.618   7.643   4.657  1.00 20.00     0.011 C 
HETATM    7 BR11 UNL     1     -35.687   5.359   5.225  1.00 20.00    -0.091 Br
ENDROOT
BRANCH   3   8
HETATM    8  C9  UNL     1     -32.860   8.377   1.811  1.00 20.00     0.009 C 
BRANCH   8   9
HETATM    9  C10 UNL     1     -32.413   8.115   0.366  1.00 20.00    -0.022 C 
HETATM   10  C7  UNL     1     -33.591   8.036  -0.606  1.00 20.00     0.009 C 
HETATM   11  C8  UNL     1     -31.446   9.214  -0.080  1.00 20.00     0.009 C 
ENDBRANCH   8   9
ENDBRANCH   3   8
TORSDOF 2
