REMARK  2 active torsions:
REMARK  status: ('A' for Active; 'I' for Inactive)
REMARK    1  A    between atoms: C4_4  and  C9_9 
REMARK    2  A    between atoms: C6_6  and  N10_10 
ROOT
HETATM    1  C1  UNL     1     -33.088   8.664   0.863  1.00 20.00     0.158 C 
HETATM    2  N10 UNL     1     -32.819   8.174   1.895  1.00 20.00    -0.270 NA
HETATM    3  S11 UNL     1     -33.425   9.349  -0.534  1.00 20.00    -0.055 SA
ENDROOT
BRANCH   2   4
HETATM    4  C6  UNL     1     -33.736   7.125   2.331  1.00 20.00     0.113 C 
HETATM    5  C3  UNL     1     -33.277   5.754   1.839  1.00 20.00     0.028 C 
HETATM    6  C2  UNL     1     -33.689   4.760   2.928  1.00 20.00     0.007 C 
HETATM    7  C4  UNL     1     -34.415   5.587   3.996  1.00 20.00    -0.009 C 
HETATM    8  C5  UNL     1     -33.807   6.997   3.859  1.00 20.00     0.010 C 
HETATM    9  C7  UNL     1     -32.454   7.163   4.560  1.00 20.00     0.012 C 
BRANCH   7  10
HETATM   10  C9  UNL     1     -34.347   4.960   5.380  1.00 20.00     0.000 C 
HETATM   11  C8  UNL     1     -35.071   5.781   6.397  1.00 20.00     0.005 C 
ENDBRANCH   7  10
ENDBRANCH   2   4
TORSDOF 2
