REMARK  1 active torsions:
REMARK  status: ('A' for Active; 'I' for Inactive)
REMARK    1  A    between atoms: C5_5  and  C9_9 
ROOT
HETATM    1  C1  UNL     1     -32.938   9.875   0.820  1.00 20.00     0.012 C 
HETATM    2  C2  UNL     1     -32.655   8.798   1.267  1.00 20.00    -0.117 C 
HETATM    3  C9  UNL     1     -32.304   7.481   1.810  1.00 20.00     0.098 C 
ENDROOT
BRANCH   3   4
HETATM    4  C5  UNL     1     -33.456   6.889   2.610  1.00 20.00     0.002 C 
HETATM    5  C3  UNL     1     -33.868   7.779   3.794  1.00 20.00     0.007 C 
HETATM    6  C4  UNL     1     -34.172   6.833   4.959  1.00 20.00     0.021 C 
HETATM    7  C7  UNL     1     -34.191   5.439   4.344  1.00 20.00     0.086 C 
HETATM    8  C6  UNL     1     -33.131   5.526   3.244  1.00 20.00     0.005 C 
HETATM    9 CL10 UNL     1     -33.845   4.183   5.546  1.00 20.00    -0.125 Cl
HETATM   10  C8  UNL     1     -33.190   4.372   2.252  1.00 20.00     0.012 C 
ENDBRANCH   3   4
TORSDOF 1
