REMARK  1 active torsions:
REMARK  status: ('A' for Active; 'I' for Inactive)
REMARK    1  A    between atoms: C7_7  and  C9_9 
ROOT
HETATM    1  C1  UNL     1     -33.255   8.843   1.090  1.00 20.00     0.012 C 
HETATM    2  C2  UNL     1     -32.970   7.723   1.418  1.00 20.00    -0.117 C 
HETATM    3  C9  UNL     1     -32.612   6.359   1.809  1.00 20.00     0.098 C 
ENDROOT
BRANCH   3   4
HETATM    4  C7  UNL     1     -33.654   5.772   2.749  1.00 20.00     0.008 C 
HETATM    5  C5  UNL     1     -33.325   4.336   3.165  1.00 20.00     0.013 C 
HETATM    6  C4  UNL     1     -34.268   4.055   4.327  1.00 20.00     0.079 C 
HETATM    7  C3  UNL     1     -34.397   5.415   4.963  1.00 20.00     0.131 C 
HETATM    8  C6  UNL     1     -33.852   6.522   4.080  1.00 20.00     0.056 C 
HETATM    9  O10 UNL     1     -34.894   5.601   6.067  1.00 20.00    -0.298 OA
HETATM   10  C8  UNL     1     -32.597   7.106   4.711  1.00 20.00     0.018 C 
ENDBRANCH   3   4
TORSDOF 1
