REMARK  1 active torsions:
REMARK  status: ('A' for Active; 'I' for Inactive)
REMARK    1  A    between atoms: C7_7  and  C9_9 
ROOT
HETATM    1  C1  UNL     1     -32.808   9.702   0.404  1.00 20.00     0.012 C 
HETATM    2  C2  UNL     1     -33.429   8.915   1.066  1.00 20.00    -0.117 C 
HETATM    3  C9  UNL     1     -34.192   7.954   1.870  1.00 20.00     0.098 C 
ENDROOT
BRANCH   3   4
HETATM    4  C7  UNL     1     -33.343   7.390   3.012  1.00 20.00     0.008 C 
HETATM    5  C5  UNL     1     -32.429   6.260   2.526  1.00 20.00     0.013 C 
HETATM    6  C4  UNL     1     -33.296   5.008   2.522  1.00 20.00     0.079 C 
HETATM    7  C3  UNL     1     -34.264   5.290   3.641  1.00 20.00     0.131 C 
HETATM    8  C6  UNL     1     -34.219   6.735   4.098  1.00 20.00     0.056 C 
HETATM    9  O10 UNL     1     -35.006   4.444   4.124  1.00 20.00    -0.298 OA
HETATM   10  C8  UNL     1     -33.598   6.816   5.485  1.00 20.00     0.018 C 
ENDBRANCH   3   4
TORSDOF 1
