REMARK  2 active torsions:
REMARK  status: ('A' for Active; 'I' for Inactive)
REMARK    1  A    between atoms: C1_1  and  N11_11 
REMARK    2  A    between atoms: C7_7  and  C10_10 
ROOT
HETATM    1  C2  UNL     1     -34.050   5.306   1.779  1.00 20.00     0.020 C 
HETATM    2  C3  UNL     1     -33.396   4.647   2.993  1.00 20.00     0.006 C 
HETATM    3  C4  UNL     1     -33.161   6.974   4.163  1.00 20.00     0.025 C 
HETATM    4  C5  UNL     1     -33.107   6.254   1.038  1.00 20.00     0.125 C 
HETATM    5  C6  UNL     1     -32.162   7.367   3.080  1.00 20.00     0.125 C 
HETATM    6  C7  UNL     1     -33.417   5.463   4.298  1.00 20.00    -0.010 C 
HETATM    7  N11 UNL     1     -32.820   7.476   1.779  1.00 20.00    -0.359 N 
ENDROOT
BRANCH   6   8
HETATM    8  C10 UNL     1     -34.727   5.235   5.062  1.00 20.00    -0.019 C 
HETATM    9  C8  UNL     1     -34.722   6.021   6.369  1.00 20.00     0.010 C 
HETATM   10  C9  UNL     1     -35.920   5.628   4.198  1.00 20.00     0.010 C 
ENDBRANCH   6   8
BRANCH   7  11
HETATM   11  C1  UNL     1     -33.243   8.711   1.304  1.00 20.00     0.350 C 
HETATM   12  O12 UNL     1     -33.870   8.939   0.276  1.00 20.00    -0.284 OA
ENDBRANCH   7  11
TORSDOF 2
