REMARK  3 active torsions:
REMARK  status: ('A' for Active; 'I' for Inactive)
REMARK    1  A    between atoms: C5_5  and  C7_7 
REMARK    2  A    between atoms: C5_5  and  C8_8 
REMARK    3  A    between atoms: C8_8  and  O9_9 
ROOT
HETATM    1  C1  UNL     1     -32.804   7.095   2.238  1.00 20.00     0.001 C 
HETATM    2  C2  UNL     1     -32.392   5.635   2.431  1.00 20.00     0.001 C 
HETATM    3  C3  UNL     1     -34.183   7.236   2.877  1.00 20.00     0.011 C 
HETATM    4  C4  UNL     1     -33.542   4.964   3.179  1.00 20.00     0.011 C 
HETATM    5  C5  UNL     1     -34.261   6.105   3.911  1.00 20.00    -0.019 C 
ENDROOT
BRANCH   5   6
HETATM    6  C7  UNL     1     -33.530   6.484   5.209  1.00 20.00     0.007 C 
HETATM    7  C6  UNL     1     -33.602   5.388   6.220  1.00 20.00     0.006 C 
ENDBRANCH   5   6
BRANCH   5   8
HETATM    8  C8  UNL     1     -35.711   5.739   4.238  1.00 20.00     0.173 C 
BRANCH   8   9
HETATM    9  O9  UNL     1     -35.722   4.440   4.790  1.00 20.00    -0.400 OA
HETATM   10  H25 UNL     1     -36.648   4.220   4.993  1.00 20.00     0.209 HD
ENDBRANCH   8   9
ENDBRANCH   5   8
TORSDOF 3
