REMARK  4 active torsions:
REMARK  status: ('A' for Active; 'I' for Inactive)
REMARK    1  A    between atoms: C3_3  and  C5_5 
REMARK    2  A    between atoms: C5_5  and  N8_8 
REMARK    3  A    between atoms: C6_6  and  C7_7 
REMARK    4  A    between atoms: C7_7  and  N8_8 
ROOT
HETATM    1  N8  UNL     1     -33.136   7.246   2.995  1.00 20.00     0.089 N 
HETATM    2  H23 UNL     1     -33.035   8.143   3.474  1.00 20.00     0.316 HD
ENDROOT
BRANCH   1   3
HETATM    3  C5  UNL     1     -33.663   7.484   1.655  1.00 20.00     0.274 C 
BRANCH   3   4
HETATM    4  C3  UNL     1     -32.747   8.355   0.864  1.00 20.00     0.014 A 
HETATM    5  C1  UNL     1     -33.256   9.089  -0.346  1.00 20.00     0.007 A 
HETATM    6  C2  UNL     1     -32.904   9.850   0.902  1.00 20.00     0.007 A 
ENDBRANCH   3   4
ENDBRANCH   1   3
BRANCH   1   7
HETATM    7  C7  UNL     1     -34.014   6.382   3.758  1.00 20.00     0.230 C 
HETATM    8  C4  UNL     1     -33.784   4.933   3.345  1.00 20.00     0.043 C 
BRANCH   7   9
HETATM    9  C6  UNL     1     -33.824   6.633   5.256  1.00 20.00     0.149 C 
HETATM   10 CL9  UNL     1     -34.929   5.677   6.277  1.00 20.00    -0.128 Cl
ENDBRANCH   7   9
ENDBRANCH   1   7
TORSDOF 4
