REMARK  1 active torsions:
REMARK  status: ('A' for Active; 'I' for Inactive)
REMARK    1  A    between atoms: C1_1  and  N8_8 
ROOT
HETATM    1  C2  UNL     1     -34.307   6.183   6.122  1.00 20.00     0.022 C 
HETATM    2  C3  UNL     1     -34.435   4.904   5.300  1.00 20.00     0.032 C 
HETATM    3  C4  UNL     1     -33.158   6.904   5.440  1.00 20.00     0.126 C 
HETATM    4  C5  UNL     1     -34.156   5.364   3.851  1.00 20.00     0.027 C 
HETATM    5  C6  UNL     1     -33.466   4.241   3.068  1.00 20.00     0.038 C 
HETATM    6  C7  UNL     1     -35.458   5.772   3.148  1.00 20.00     0.038 C 
HETATM    7  N8  UNL     1     -33.280   6.535   4.039  1.00 20.00    -0.351 N 
ENDROOT
BRANCH   7   8
HETATM    8  C1  UNL     1     -32.665   7.247   3.032  1.00 20.00     0.351 C 
HETATM    9  O9  UNL     1     -32.711   7.013   1.830  1.00 20.00    -0.284 OA
ENDBRANCH   7   8
TORSDOF 1
