REMARK  1 active torsions:
REMARK  status: ('A' for Active; 'I' for Inactive)
REMARK    1  A    between atoms: C6_6  and  C7_7 
ROOT
HETATM    1  C1  UNL     1     -33.127   7.798   2.387  1.00 20.00     0.065 C 
HETATM    2  C7  UNL     1     -33.484   7.793   3.813  1.00 20.00     0.186 C 
HETATM    3  N8  UNL     1     -32.844   7.803   1.262  1.00 20.00    -0.197 NA
ENDROOT
BRANCH   2   4
HETATM    4  C6  UNL     1     -33.919   6.431   4.240  1.00 20.00     0.085 A 
HETATM    5  C4  UNL     1     -34.027   6.143   5.591  1.00 20.00     0.143 A 
HETATM    6  C2  UNL     1     -34.435   4.864   5.953  1.00 20.00     0.069 A 
HETATM    7  F10 UNL     1     -33.752   7.060   6.527  1.00 20.00    -0.204 F 
HETATM    8  C5  UNL     1     -34.718   3.925   4.967  1.00 20.00     0.054 A 
HETATM    9  C3  UNL     1     -34.578   4.312   3.644  1.00 20.00     0.141 A 
HETATM   10 CL11 UNL     1     -35.224   2.338   5.375  1.00 20.00    -0.083 Cl
HETATM   11  N9  UNL     1     -34.185   5.545   3.254  1.00 20.00    -0.260 NA
ENDBRANCH   2   4
TORSDOF 1
