REMARK  1 active torsions:
REMARK  status: ('A' for Active; 'I' for Inactive)
REMARK    1  A    between atoms: C1_1  and  N8_8 
ROOT
HETATM    1  C2  UNL     1     -34.462   5.393   6.226  1.00 20.00     0.008 C 
HETATM    2  C3  UNL     1     -34.213   4.178   5.306  1.00 20.00     0.026 C 
HETATM    3  C4  UNL     1     -35.934   5.513   4.363  1.00 20.00     0.031 C 
HETATM    4  C5  UNL     1     -34.030   6.927   4.289  1.00 20.00     0.130 C 
HETATM    5  C6  UNL     1     -35.102   6.426   5.274  1.00 20.00     0.006 C 
HETATM    6  C7  UNL     1     -34.721   4.682   3.944  1.00 20.00     0.087 C 
HETATM    7  N8  UNL     1     -33.794   5.725   3.501  1.00 20.00    -0.354 N 
ENDROOT
BRANCH   7   8
HETATM    8  C1  UNL     1     -32.816   5.579   2.553  1.00 20.00     0.351 C 
HETATM    9  O9  UNL     1     -31.989   6.416   2.211  1.00 20.00    -0.284 OA
ENDBRANCH   7   8
TORSDOF 1
