REMARK  0 active torsions:
REMARK  status: ('A' for Active; 'I' for Inactive)
ROOT
HETATM    1  C1  UNL     1     -32.833   7.163   1.744  1.00 20.00     0.102 C 
HETATM    2  C2  UNL     1     -33.452   4.838   2.223  1.00 20.00     0.075 A 
HETATM    3  C3  UNL     1     -33.293   6.143   2.635  1.00 20.00     0.075 A 
HETATM    4  C4  UNL     1     -33.638   6.317   4.007  1.00 20.00     0.084 A 
HETATM    5  C5  UNL     1     -34.047   5.138   4.591  1.00 20.00     0.097 A 
HETATM    6  N6  UNL     1     -32.460   7.990   1.021  1.00 20.00    -0.191 NA
HETATM    7  S7  UNL     1     -34.014   3.829   3.487  1.00 20.00    -0.086 SA
HETATM    8 CL8  UNL     1     -33.546   7.830   4.814  1.00 20.00    -0.080 Cl
HETATM    9 CL9  UNL     1     -34.554   4.857   6.207  1.00 20.00    -0.074 Cl
ENDROOT
TORSDOF 0
