REMARK  0 active torsions:
REMARK  status: ('A' for Active; 'I' for Inactive)
ROOT
HETATM    1  C1  UNL     1     -33.651   6.265   4.186  1.00 20.00    -0.074 C 
HETATM    2  C2  UNL     1     -34.319   6.180   5.339  1.00 20.00    -0.085 C 
HETATM    3  C3  UNL     1     -32.540   7.236   3.870  1.00 20.00     0.039 C 
HETATM    4  C4  UNL     1     -34.495   6.226   1.876  1.00 20.00     0.009 C 
HETATM    5  C5  UNL     1     -33.387   7.226   1.493  1.00 20.00     0.005 C 
HETATM    6  C6  UNL     1     -32.386   5.303   2.478  1.00 20.00     0.014 C 
HETATM    7  C7  UNL     1     -33.831   5.379   2.973  1.00 20.00     0.015 C 
HETATM    8  C8  UNL     1     -32.219   6.825   2.418  1.00 20.00    -0.010 C 
HETATM    9  C9  UNL     1     -35.414   5.173   5.555  1.00 20.00     0.043 C 
HETATM   10  C10 UNL     1     -34.023   7.085   6.502  1.00 20.00     0.043 C 
ENDROOT
TORSDOF 0
