REMARK  1 active torsions:
REMARK  status: ('A' for Active; 'I' for Inactive)
REMARK    1  A    between atoms: C2_2  and  C3_3 
ROOT
HETATM    1  C1  UNL     1     -34.549   4.539   4.494  1.00 20.00     0.112 C 
HETATM    2  C2  UNL     1     -33.739   5.274   3.725  1.00 20.00     0.090 C 
HETATM    3 CL6  UNL     1     -35.136   4.995   6.042  1.00 20.00    -0.095 Cl
HETATM    4 CL7  UNL     1     -33.192   4.739   2.172  1.00 20.00    -0.080 Cl
ENDROOT
BRANCH   2   5
HETATM    5  C3  UNL     1     -33.246   6.621   4.158  1.00 20.00     0.167 C 
HETATM    6  C4  UNL     1     -32.334   7.403   3.244  1.00 20.00     0.097 C 
HETATM    7  O5  UNL     1     -33.579   7.091   5.247  1.00 20.00    -0.292 OA
ENDBRANCH   2   5
TORSDOF 1
