REMARK  1 active torsions:
REMARK  status: ('A' for Active; 'I' for Inactive)
REMARK    1  A    between atoms: C1_1  and  C4_4 
ROOT
HETATM    1  C2  UNL     1     -35.716   5.798   4.099  1.00 20.00     0.042 C 
HETATM    2  C3  UNL     1     -33.650   6.540   5.353  1.00 20.00     0.042 C 
HETATM    3  C4  UNL     1     -34.214   5.589   4.297  1.00 20.00     0.105 C 
HETATM    4 CL7  UNL     1     -33.976   3.904   4.903  1.00 20.00    -0.110 Cl
ENDROOT
BRANCH   3   5
HETATM    5  C1  UNL     1     -33.450   5.711   2.966  1.00 20.00     0.241 C 
HETATM    6  O5  UNL     1     -32.998   6.775   2.549  1.00 20.00    -0.278 OA
HETATM    7 CL6  UNL     1     -33.290   4.193   2.110  1.00 20.00    -0.042 Cl
ENDBRANCH   3   5
TORSDOF 1
