REMARK  5 active torsions:
REMARK  status: ('A' for Active; 'I' for Inactive)
REMARK    1  A    between atoms: C2_2  and  C9_9 
REMARK    2  A    between atoms: C3_3  and  C8_8 
REMARK    3  A    between atoms: C4_4  and  C10_10 
REMARK    4  A    between atoms: C8_8  and  C9_9 
REMARK    5  A    between atoms: C10_10  and  O11_11 
ROOT
HETATM    1  C3  UNL     1     -33.337   5.104   2.823  1.00 20.00    -0.027 C 
HETATM    2  C4  UNL     1     -33.771   4.580   3.980  1.00 20.00     0.006 C 
ENDROOT
BRANCH   1   3
HETATM    3  C8  UNL     1     -33.751   6.459   2.315  1.00 20.00     0.035 C 
BRANCH   3   4
HETATM    4  C9  UNL     1     -32.546   7.379   2.040  1.00 20.00     0.006 C 
HETATM    5  C5  UNL     1     -31.782   7.646   3.340  1.00 20.00     0.014 C 
BRANCH   4   6
HETATM    6  C2  UNL     1     -32.982   8.694   1.438  1.00 20.00    -0.032 C 
HETATM    7  C1  UNL     1     -32.576   9.140   0.243  1.00 20.00     0.007 C 
ENDBRANCH   4   6
ENDBRANCH   3   4
ENDBRANCH   1   3
BRANCH   2   8
HETATM    8  C10 UNL     1     -34.723   5.215   4.970  1.00 20.00     0.068 C 
HETATM    9  C6  UNL     1     -34.264   6.548   5.571  1.00 20.00     0.050 C 
HETATM   10  C7  UNL     1     -36.092   5.395   4.308  1.00 20.00     0.050 C 
BRANCH   8  11
HETATM   11  O11 UNL     1     -34.902   4.293   6.052  1.00 20.00    -0.387 OA
HETATM   12  H29 UNL     1     -35.512   4.719   6.670  1.00 20.00     0.211 HD
ENDBRANCH   8  11
ENDBRANCH   2   8
TORSDOF 5
