REMARK  4 active torsions:
REMARK  status: ('A' for Active; 'I' for Inactive)
REMARK    1  A    between atoms: C3_3  and  C7_7 
REMARK    2  A    between atoms: C6_6  and  C7_7 
REMARK    3  A    between atoms: C6_6  and  N9_9 
REMARK    4  A    between atoms: C8_8  and  N9_9 
ROOT
HETATM    1  C6  UNL     1     -32.804   6.880   3.450  1.00 20.00     0.290 C 
ENDROOT
BRANCH   1   2
HETATM    2  C7  UNL     1     -32.562   6.944   1.941  1.00 20.00     0.114 C 
HETATM    3 CL10 UNL     1     -33.087   5.423   1.157  1.00 20.00    -0.123 Cl
BRANCH   2   4
HETATM    4  C3  UNL     1     -33.246   8.129   1.270  1.00 20.00     0.006 A 
HETATM    5  C1  UNL     1     -32.619   9.495   1.323  1.00 20.00     0.006 A 
HETATM    6  C2  UNL     1     -32.660   8.736   0.026  1.00 20.00     0.006 A 
ENDBRANCH   2   4
ENDBRANCH   1   2
BRANCH   1   7
HETATM    7  N9  UNL     1     -34.210   6.787   3.768  1.00 20.00     0.088 N 
HETATM    8  H26 UNL     1     -34.676   6.161   3.105  1.00 20.00     0.316 HD
BRANCH   7   9
HETATM    9  C8  UNL     1     -34.419   6.274   5.120  1.00 20.00     0.212 C 
HETATM   10  C4  UNL     1     -33.364   6.865   6.045  1.00 20.00     0.042 C 
HETATM   11  C5  UNL     1     -34.352   4.755   5.087  1.00 20.00     0.042 C 
ENDBRANCH   7   9
ENDBRANCH   1   7
TORSDOF 4
