REMARK  2 active torsions:
REMARK  status: ('A' for Active; 'I' for Inactive)
REMARK    1  A    between atoms: C1_1  and  C3_3 
REMARK    2  A    between atoms: C2_2  and  C5_5 
ROOT
HETATM    1  C1  UNL     1     -32.726   6.375   2.991  1.00 20.00     0.004 C 
HETATM    2  C2  UNL     1     -33.964   6.196   3.471  1.00 20.00     0.049 C 
ENDROOT
BRANCH   1   3
HETATM    3  C3  UNL     1     -32.329   7.574   2.285  1.00 20.00     0.007 C 
HETATM    4  C4  UNL     1     -33.121   8.193   1.403  1.00 20.00     0.056 C 
HETATM    5 BR8  UNL     1     -32.647   9.731   0.479  1.00 20.00    -0.064 Br
ENDBRANCH   1   3
BRANCH   2   6
HETATM    6  C5  UNL     1     -34.322   4.943   4.193  1.00 20.00     0.145 C 
HETATM    7  C6  UNL     1     -34.790   5.094   5.616  1.00 20.00     0.096 C 
HETATM    8  O7  UNL     1     -34.218   3.834   3.672  1.00 20.00    -0.294 OA
ENDBRANCH   2   6
TORSDOF 2
