REMARK  2 active torsions:
REMARK  status: ('A' for Active; 'I' for Inactive)
REMARK    1  A    between atoms: C1_1  and  C4_4 
REMARK    2  A    between atoms: C4_4  and  C6_6 
ROOT
HETATM    1  C2  UNL     1     -34.511   7.275   2.687  1.00 20.00     0.062 A 
HETATM    2  C3  UNL     1     -33.165   6.737   2.326  1.00 20.00     0.190 A 
HETATM    3  C4  UNL     1     -33.752   6.415   3.679  1.00 20.00     0.081 A 
HETATM    4  F9  UNL     1     -32.114   7.636   2.265  1.00 20.00    -0.248 F 
ENDROOT
BRANCH   3   5
HETATM    5  C1  UNL     1     -34.241   5.053   3.858  1.00 20.00     0.184 C 
HETATM    6  O7  UNL     1     -35.111   4.908   4.762  1.00 20.00    -0.647 OA
HETATM    7  O8  UNL     1     -33.728   4.199   3.082  1.00 20.00    -0.647 OA
ENDBRANCH   3   5
BRANCH   3   8
HETATM    8  C6  UNL     1     -33.160   7.106   4.880  1.00 20.00     0.019 C 
HETATM    9  C5  UNL     1     -34.142   7.233   6.009  1.00 20.00     0.006 C 
ENDBRANCH   3   8
TORSDOF 2
