REMARK  3 active torsions:
REMARK  status: ('A' for Active; 'I' for Inactive)
REMARK    1  A    between atoms: C2_2  and  C8_8 
REMARK    2  A    between atoms: C4_4  and  C7_7 
REMARK    3  A    between atoms: C7_7  and  C8_8 
ROOT
HETATM    1  C7  UNL     1     -33.182   7.523   2.634  1.00 20.00     0.034 C 
ENDROOT
BRANCH   1   2
HETATM    2  C4  UNL     1     -32.196   7.362   1.509  1.00 20.00    -0.030 C 
HETATM    3  C3  UNL     1     -32.343   7.927   0.302  1.00 20.00    -0.035 C 
HETATM    4  C5  UNL     1     -33.503   8.787  -0.078  1.00 20.00     0.035 C 
ENDBRANCH   1   2
BRANCH   1   5
HETATM    5  C8  UNL     1     -33.230   6.294   3.563  1.00 20.00     0.007 C 
HETATM    6  C6  UNL     1     -33.616   5.048   2.763  1.00 20.00     0.014 C 
BRANCH   5   7
HETATM    7  C2  UNL     1     -34.216   6.491   4.689  1.00 20.00    -0.032 C 
HETATM    8  C1  UNL     1     -33.887   6.458   5.986  1.00 20.00     0.007 C 
ENDBRANCH   5   7
ENDBRANCH   1   5
TORSDOF 3
