REMARK  0 active torsions:
REMARK  status: ('A' for Active; 'I' for Inactive)
ROOT
HETATM    1  C1  UNL     1     -33.752   4.084   3.366  1.00 20.00     0.001 C 
HETATM    2  C2  UNL     1     -34.321   3.970   4.576  1.00 20.00     0.076 C 
HETATM    3  C3  UNL     1     -33.259   5.330   2.700  1.00 20.00     0.038 C 
HETATM    4 CL4  UNL     1     -34.586   5.331   5.613  1.00 20.00    -0.076 Cl
HETATM    5 BR5  UNL     1     -34.878   2.310   5.240  1.00 20.00    -0.038 Br
ENDROOT
TORSDOF 0
