REMARK  1 active torsions:
REMARK  status: ('A' for Active; 'I' for Inactive)
REMARK    1  A    between atoms: C5_5  and  C8_8 
ROOT
HETATM    1  C1  UNL     1     -32.549   6.644   1.580  1.00 20.00     0.047 C 
HETATM    2  C2  UNL     1     -32.618   6.350   2.884  1.00 20.00    -0.009 C 
HETATM    3  C3  UNL     1     -32.888   8.003   1.099  1.00 20.00     0.149 C 
HETATM    4  C6  UNL     1     -33.222   9.066   2.119  1.00 20.00     0.084 C 
HETATM    5  C7  UNL     1     -33.898   8.459   3.342  1.00 20.00     0.025 C 
HETATM    6  C8  UNL     1     -33.087   7.301   3.966  1.00 20.00    -0.003 C 
HETATM    7  C11 UNL     1     -31.861   7.832   4.726  1.00 20.00     0.024 C 
HETATM    8  O12 UNL     1     -32.831   8.257  -0.103  1.00 20.00    -0.293 OA
ENDROOT
BRANCH   6   9
HETATM    9  C5  UNL     1     -33.974   6.580   4.952  1.00 20.00    -0.076 C 
HETATM   10  C4  UNL     1     -35.119   5.990   4.559  1.00 20.00    -0.027 C 
HETATM   11  C9  UNL     1     -35.686   5.937   3.197  1.00 20.00     0.036 C 
HETATM   12  C10 UNL     1     -33.479   6.580   6.371  1.00 20.00     0.044 C 
ENDBRANCH   6   9
TORSDOF 1
