REMARK  1 active torsions:
REMARK  status: ('A' for Active; 'I' for Inactive)
REMARK    1  A    between atoms: C8_8  and  C11_11 
ROOT
HETATM    1  C1  UNL     1     -36.023   5.404   4.271  1.00 20.00     0.064 C 
HETATM    2  C2  UNL     1     -32.536   6.858   4.606  1.00 20.00     0.002 C 
HETATM    3  C3  UNL     1     -33.970   6.557   5.037  1.00 20.00     0.019 C 
HETATM    4  C4  UNL     1     -33.907   4.759   3.151  1.00 20.00     0.019 C 
HETATM    5  C5  UNL     1     -32.377   7.378   3.170  1.00 20.00     0.005 C 
HETATM    6  C6  UNL     1     -33.917   5.706   1.951  1.00 20.00     0.006 C 
HETATM    7  C7  UNL     1     -34.564   5.266   4.442  1.00 20.00     0.093 C 
HETATM    8  C8  UNL     1     -33.569   7.176   2.222  1.00 20.00    -0.011 C 
HETATM    9  N12 UNL     1     -37.170   5.513   4.136  1.00 20.00    -0.197 NA
ENDROOT
BRANCH   8  10
HETATM   10  C11 UNL     1     -33.302   7.890   0.890  1.00 20.00    -0.019 C 
HETATM   11  C9  UNL     1     -33.624   9.376   1.012  1.00 20.00     0.010 C 
HETATM   12  C10 UNL     1     -31.855   7.681   0.458  1.00 20.00     0.010 C 
ENDBRANCH   8  10
TORSDOF 1
