REMARK  0 active torsions:
REMARK  status: ('A' for Active; 'I' for Inactive)
ROOT
HETATM    1  C1  UNL     1     -32.487   7.492   4.211  1.00 20.00     0.004 C 
HETATM    2  C2  UNL     1     -31.930   7.356   2.795  1.00 20.00     0.040 C 
HETATM    3  C3  UNL     1     -34.025   6.508   1.504  1.00 20.00     0.041 C 
HETATM    4  C4  UNL     1     -33.941   7.057   4.411  1.00 20.00     0.009 C 
HETATM    5  C5  UNL     1     -33.950   5.320   2.468  1.00 20.00     0.012 C 
HETATM    6  C6  UNL     1     -33.255   8.981   1.258  1.00 20.00     0.207 A 
HETATM    7  C7  UNL     1     -32.972   7.569   1.733  1.00 20.00     0.082 A 
HETATM    8  C8  UNL     1     -34.326   5.632   3.943  1.00 20.00    -0.048 C 
HETATM    9  C9  UNL     1     -33.656   4.583   4.852  1.00 20.00     0.015 C 
HETATM   10  C10 UNL     1     -35.856   5.490   4.107  1.00 20.00     0.015 C 
HETATM   11  O11 UNL     1     -32.427   8.090   0.506  1.00 20.00    -0.375 OA
ENDROOT
TORSDOF 0
