REMARK  1 active torsions:
REMARK  status: ('A' for Active; 'I' for Inactive)
REMARK    1  A    between atoms: C4_4  and  C10_10 
ROOT
HETATM    1  C5  UNL     1     -34.475   6.834   5.341  1.00 20.00     0.001 C 
HETATM    2  C6  UNL     1     -34.648   5.554   6.153  1.00 20.00     0.001 C 
HETATM    3  C7  UNL     1     -33.070   6.985   4.761  1.00 20.00     0.009 C 
HETATM    4  C8  UNL     1     -34.799   4.280   5.329  1.00 20.00     0.020 C 
HETATM    5  C9  UNL     1     -33.587   4.950   3.183  1.00 20.00     0.029 C 
HETATM    6  C10 UNL     1     -32.778   6.234   3.449  1.00 20.00     0.020 C 
HETATM    7  C11 UNL     1     -33.643   3.983   4.370  1.00 20.00     0.083 C 
HETATM    8 CL13 UNL     1     -33.886   2.315   3.731  1.00 20.00    -0.125 Cl
ENDROOT
BRANCH   6   9
HETATM    9  C4  UNL     1     -32.847   7.168   2.245  1.00 20.00    -0.047 A 
HETATM   10  C1  UNL     1     -31.725   7.499   1.431  1.00 20.00     0.015 A 
HETATM   11  C2  UNL     1     -32.063   8.363   0.412  1.00 20.00     0.050 A 
HETATM   12  S12 UNL     1     -33.725   8.772   0.441  1.00 20.00    -0.113 SA
HETATM   13  C3  UNL     1     -33.998   7.792   1.818  1.00 20.00     0.057 A 
ENDBRANCH   6   9
TORSDOF 1
