REMARK  2 active torsions:
REMARK  status: ('A' for Active; 'I' for Inactive)
REMARK    1  A    between atoms: C5_5  and  S11_11 
REMARK    2  A    between atoms: C9_9  and  S11_11 
ROOT
HETATM    1  C1  UNL     1     -33.769   6.241   5.226  1.00 20.00     0.080 C 
HETATM    2  C2  UNL     1     -34.561   3.640   3.942  1.00 20.00     0.005 C 
HETATM    3  C3  UNL     1     -33.609   4.640   3.252  1.00 20.00     0.036 C 
HETATM    4  C4  UNL     1     -35.559   4.804   4.123  1.00 20.00     0.036 C 
HETATM    5  C5  UNL     1     -34.359   5.777   3.992  1.00 20.00     0.097 C 
HETATM    6  N10 UNL     1     -33.295   6.615   6.217  1.00 20.00    -0.196 NA
ENDROOT
BRANCH   5   7
HETATM    7  S11 UNL     1     -34.729   7.193   2.897  1.00 20.00    -0.135 SA
BRANCH   7   8
HETATM    8  C9  UNL     1     -33.017   7.834   2.736  1.00 20.00    -0.001 C 
HETATM    9  C6  UNL     1     -32.040   6.661   2.856  1.00 20.00     0.026 C 
HETATM   10  C7  UNL     1     -32.879   8.503   1.365  1.00 20.00     0.026 C 
HETATM   11  C8  UNL     1     -32.767   8.853   3.852  1.00 20.00     0.026 C 
ENDBRANCH   7   8
ENDBRANCH   5   7
TORSDOF 2
