REMARK  3 active torsions:
REMARK  status: ('A' for Active; 'I' for Inactive)
REMARK    1  A    between atoms: C4_4  and  C9_9 
REMARK    2  A    between atoms: C8_8  and  C9_9 
REMARK    3  A    between atoms: C9_9  and  O10_10 
ROOT
HETATM    1  C9  UNL     1     -32.770   6.315   2.404  1.00 20.00     0.155 C 
ENDROOT
BRANCH   1   2
HETATM    2  C4  UNL     1     -33.463   6.216   3.745  1.00 20.00    -0.022 A 
HETATM    3  C1  UNL     1     -34.300   5.129   4.129  1.00 20.00     0.017 A 
HETATM    4  C2  UNL     1     -34.806   5.288   5.400  1.00 20.00     0.050 A 
HETATM    5  S11 UNL     1     -34.271   6.744   6.126  1.00 20.00    -0.113 SA
HETATM    6  C3  UNL     1     -33.361   7.165   4.739  1.00 20.00     0.059 A 
ENDBRANCH   1   2
BRANCH   1   7
HETATM    7  C8  UNL     1     -32.628   7.745   1.925  1.00 20.00     0.019 C 
HETATM    8  C6  UNL     1     -33.933   8.469   1.501  1.00 20.00     0.007 C 
HETATM    9  C5  UNL     1     -33.107   9.148   0.389  1.00 20.00     0.001 C 
HETATM   10  C7  UNL     1     -32.146   7.943   0.464  1.00 20.00     0.007 C 
ENDBRANCH   1   7
BRANCH   1  11
HETATM   11  O10 UNL     1     -33.537   5.575   1.453  1.00 20.00    -0.391 OA
HETATM   12  H23 UNL     1     -34.415   5.985   1.433  1.00 20.00     0.210 HD
ENDBRANCH   1  11
TORSDOF 3
