REMARK  2 active torsions:
REMARK  status: ('A' for Active; 'I' for Inactive)
REMARK    1  A    between atoms: C4_4  and  C9_9 
REMARK    2  A    between atoms: C5_5  and  S11_11 
ROOT
HETATM    1  C1  UNL     1     -33.420   6.311   5.155  1.00 20.00     0.080 C 
HETATM    2  C2  UNL     1     -32.528   6.097   2.780  1.00 20.00     0.041 C 
HETATM    3  C3  UNL     1     -34.420   7.095   2.949  1.00 20.00     0.041 C 
HETATM    4  C4  UNL     1     -33.025   7.522   2.421  1.00 20.00    -0.006 C 
HETATM    5  C5  UNL     1     -33.710   5.994   3.776  1.00 20.00     0.097 C 
HETATM    6  N10 UNL     1     -33.187   6.566   6.263  1.00 20.00    -0.196 NA
ENDROOT
BRANCH   5   7
HETATM    7  S11 UNL     1     -34.569   4.383   3.669  1.00 20.00    -0.148 SA
HETATM    8  C8  UNL     1     -36.014   4.804   4.666  1.00 20.00     0.091 C 
ENDBRANCH   5   7
BRANCH   4   9
HETATM    9  C9  UNL     1     -32.947   7.919   0.960  1.00 20.00    -0.019 C 
HETATM   10  C6  UNL     1     -33.501   9.330   0.744  1.00 20.00     0.010 C 
HETATM   11  C7  UNL     1     -31.508   7.833   0.445  1.00 20.00     0.010 C 
ENDBRANCH   4   9
TORSDOF 2
