REMARK  2 active torsions:
REMARK  status: ('A' for Active; 'I' for Inactive)
REMARK    1  A    between atoms: C6_6  and  C9_9 
REMARK    2  A    between atoms: C9_9  and  C10_10 
ROOT
HETATM    1  C1  UNL     1     -33.969   4.701   2.135  1.00 20.00     0.002 C 
HETATM    2  C2  UNL     1     -32.850   5.516   1.494  1.00 20.00     0.005 C 
HETATM    3  C3  UNL     1     -32.113   7.014   3.407  1.00 20.00     0.006 C 
HETATM    4  C4  UNL     1     -33.928   4.592   3.659  1.00 20.00     0.020 C 
HETATM    5  C5  UNL     1     -33.107   6.859   4.558  1.00 20.00     0.020 C 
HETATM    6  C6  UNL     1     -32.711   6.963   1.995  1.00 20.00    -0.014 C 
HETATM    7  C7  UNL     1     -34.285   5.909   4.346  1.00 20.00     0.082 C 
HETATM    8 CL11 UNL     1     -35.020   5.565   5.954  1.00 20.00    -0.125 Cl
ENDROOT
BRANCH   6   9
HETATM    9  C9  UNL     1     -31.796   7.732   1.031  1.00 20.00     0.004 C 
BRANCH   9  10
HETATM   10  C10 UNL     1     -32.548   8.139  -0.228  1.00 20.00    -0.004 C 
HETATM   11  C8  UNL     1     -33.744   9.014   0.109  1.00 20.00     0.005 C 
ENDBRANCH   9  10
ENDBRANCH   6   9
TORSDOF 2
