REMARK  2 active torsions:
REMARK  status: ('A' for Active; 'I' for Inactive)
REMARK    1  A    between atoms: C8_8  and  C10_10 
REMARK    2  A    between atoms: C10_10  and  C11_11 
ROOT
HETATM    1  C1  UNL     1     -35.889   5.464   4.113  1.00 20.00     0.064 C 
HETATM    2  C2  UNL     1     -32.503   7.142   4.437  1.00 20.00     0.002 C 
HETATM    3  C3  UNL     1     -33.977   6.900   4.755  1.00 20.00     0.019 C 
HETATM    4  C4  UNL     1     -33.631   4.640   3.504  1.00 20.00     0.019 C 
HETATM    5  C5  UNL     1     -32.159   7.233   2.942  1.00 20.00     0.005 C 
HETATM    6  C6  UNL     1     -33.494   5.197   2.087  1.00 20.00     0.006 C 
HETATM    7  C7  UNL     1     -34.464   5.462   4.497  1.00 20.00     0.093 C 
HETATM    8  C8  UNL     1     -33.210   6.700   1.955  1.00 20.00    -0.014 C 
HETATM    9  N12 UNL     1     -37.009   5.466   3.810  1.00 20.00    -0.197 NA
ENDROOT
BRANCH   8  10
HETATM   10  C10 UNL     1     -32.777   7.012   0.516  1.00 20.00     0.004 C 
BRANCH  10  11
HETATM   11  C11 UNL     1     -32.668   8.514   0.293  1.00 20.00    -0.004 C 
HETATM   12  C9  UNL     1     -34.008   9.197   0.515  1.00 20.00     0.005 C 
ENDBRANCH  10  11
ENDBRANCH   8  10
TORSDOF 2
