REMARK  1 active torsions:
REMARK  status: ('A' for Active; 'I' for Inactive)
REMARK    1  A    between atoms: C4_4  and  C8_8 
ROOT
HETATM    1  C5  UNL     1     -33.579   6.014   5.474  1.00 20.00     0.002 C 
HETATM    2  C6  UNL     1     -32.984   7.100   4.573  1.00 20.00     0.011 C 
HETATM    3  C7  UNL     1     -34.527   5.199   4.595  1.00 20.00     0.021 C 
HETATM    4  C8  UNL     1     -33.793   7.045   3.264  1.00 20.00     0.037 C 
HETATM    5  C9  UNL     1     -34.151   5.548   3.158  1.00 20.00     0.090 C 
HETATM    6 CL11 UNL     1     -32.762   4.546   2.630  1.00 20.00    -0.124 Cl
ENDROOT
BRANCH   4   7
HETATM    7  C4  UNL     1     -33.177   7.681   2.036  1.00 20.00    -0.046 A 
HETATM    8  C1  UNL     1     -31.936   7.272   1.467  1.00 20.00     0.015 A 
HETATM    9  C2  UNL     1     -31.607   8.016   0.355  1.00 20.00     0.050 A 
HETATM   10  S10 UNL     1     -32.790   9.203   0.002  1.00 20.00    -0.113 SA
HETATM   11  C3  UNL     1     -33.748   8.722   1.337  1.00 20.00     0.057 A 
ENDBRANCH   4   7
TORSDOF 1
