REMARK  4 active torsions:
REMARK  status: ('A' for Active; 'I' for Inactive)
REMARK    1  A    between atoms: C5_5  and  C7_7 
REMARK    2  A    between atoms: C5_5  and  O10_10 
REMARK    3  A    between atoms: C6_6  and  C7_7 
REMARK    4  A    between atoms: C7_7  and  N8_8 
ROOT
HETATM    1  C1  UNL     1     -32.731   8.239   1.328  1.00 20.00     0.332 C 
HETATM    2  N8  UNL     1     -32.681   7.253   1.957  1.00 20.00    -0.240 NA
HETATM    3  O9  UNL     1     -32.774   9.226   0.690  1.00 20.00    -0.260 OA
ENDROOT
BRANCH   2   4
HETATM    4  C7  UNL     1     -33.682   7.177   3.033  1.00 20.00     0.139 C 
BRANCH   4   5
HETATM    5  C5  UNL     1     -34.602   5.992   2.741  1.00 20.00     0.194 C 
BRANCH   5   6
HETATM    6  O10 UNL     1     -33.959   4.791   3.156  1.00 20.00    -0.394 OA
HETATM    7  C4  UNL     1     -33.016   4.348   2.191  1.00 20.00     0.201 C 
ENDBRANCH   5   6
ENDBRANCH   4   5
BRANCH   4   8
HETATM    8  C6  UNL     1     -32.975   7.070   4.401  1.00 20.00     0.004 C 
HETATM    9  C2  UNL     1     -33.992   7.039   5.548  1.00 20.00     0.012 C 
HETATM   10  C3  UNL     1     -31.945   8.175   4.650  1.00 20.00     0.012 C 
ENDBRANCH   4   8
ENDBRANCH   2   4
TORSDOF 4
