REMARK  1 active torsions:
REMARK  status: ('A' for Active; 'I' for Inactive)
REMARK    1  A    between atoms: C3_3  and  C8_8 
ROOT
HETATM    1  C1  UNL     1     -33.402   9.145   2.654  1.00 20.00     0.022 A 
HETATM    2  C2  UNL     1     -32.584   7.432   1.313  1.00 20.00     0.057 A 
HETATM    3  C3  UNL     1     -33.089   7.758   2.552  1.00 20.00    -0.045 A 
HETATM    4  C4  UNL     1     -33.124   9.825   1.489  1.00 20.00    -0.021 A 
HETATM    5  C10 UNL     1     -33.306  11.263   1.196  1.00 20.00     0.056 C 
HETATM    6  S11 UNL     1     -32.489   8.793   0.279  1.00 20.00    -0.106 SA
ENDROOT
BRANCH   3   7
HETATM    7  C8  UNL     1     -33.289   6.763   3.675  1.00 20.00     0.033 C 
HETATM    8  C6  UNL     1     -33.538   5.332   3.168  1.00 20.00     0.010 C 
HETATM    9  C5  UNL     1     -34.349   4.689   4.282  1.00 20.00     0.002 C 
HETATM   10  C7  UNL     1     -35.316   5.795   4.682  1.00 20.00     0.016 C 
HETATM   11  C9  UNL     1     -34.497   7.081   4.582  1.00 20.00     0.066 C 
HETATM   12 BR12 UNL     1     -33.870   7.604   6.364  1.00 20.00    -0.090 Br
ENDBRANCH   3   7
TORSDOF 1
