REMARK  1 active torsions:
REMARK  status: ('A' for Active; 'I' for Inactive)
REMARK    1  A    between atoms: C7_7  and  C11_11 
ROOT
HETATM    1  C1  UNL     1     -33.651   8.039   4.427  1.00 20.00     0.004 C 
HETATM    2  C2  UNL     1     -32.602   8.114   3.311  1.00 20.00     0.005 C 
HETATM    3  C3  UNL     1     -32.563   5.795   2.148  1.00 20.00     0.008 C 
HETATM    4  C4  UNL     1     -33.681   6.723   5.196  1.00 20.00     0.040 C 
HETATM    5  C5  UNL     1     -32.662   5.108   3.507  1.00 20.00     0.041 C 
HETATM    6  C6  UNL     1     -35.244   5.081   3.896  1.00 20.00     0.207 A 
HETATM    7  C7  UNL     1     -32.977   7.278   2.074  1.00 20.00    -0.011 C 
HETATM    8  C8  UNL     1     -33.859   5.530   4.304  1.00 20.00     0.082 A 
HETATM    9  O12 UNL     1     -34.525   4.434   4.954  1.00 20.00    -0.375 OA
ENDROOT
BRANCH   7  10
HETATM   10  C11 UNL     1     -32.370   7.900   0.810  1.00 20.00    -0.019 C 
HETATM   11  C9  UNL     1     -32.710   7.055  -0.412  1.00 20.00     0.010 C 
HETATM   12  C10 UNL     1     -32.865   9.332   0.635  1.00 20.00     0.010 C 
ENDBRANCH   7  10
TORSDOF 1
