REMARK  1 active torsions:
REMARK  status: ('A' for Active; 'I' for Inactive)
REMARK    1  A    between atoms: C6_6  and  S9_9 
ROOT
HETATM    1  C1  UNL     1     -33.246   4.788   2.972  1.00 20.00     0.080 C 
HETATM    2  C2  UNL     1     -35.765   5.707   4.474  1.00 20.00     0.003 C 
HETATM    3  C3  UNL     1     -34.866   5.115   5.558  1.00 20.00     0.003 C 
HETATM    4  C4  UNL     1     -34.860   6.571   3.592  1.00 20.00     0.036 C 
HETATM    5  C5  UNL     1     -33.460   5.655   5.288  1.00 20.00     0.036 C 
HETATM    6  C6  UNL     1     -33.455   5.994   3.795  1.00 20.00     0.096 C 
HETATM    7  N8  UNL     1     -33.081   3.840   2.325  1.00 20.00    -0.196 NA
ENDROOT
BRANCH   6   8
HETATM    8  S9  UNL     1     -32.173   7.236   3.413  1.00 20.00    -0.148 SA
HETATM    9  C7  UNL     1     -32.541   7.446   1.658  1.00 20.00     0.091 C 
ENDBRANCH   6   8
TORSDOF 1
