REMARK  1 active torsions:
REMARK  status: ('A' for Active; 'I' for Inactive)
REMARK    1  A    between atoms: C7_7  and  C10_10 
ROOT
HETATM    1  C1  UNL     1     -32.903   4.822   1.770  1.00 20.00     0.004 C 
HETATM    2  C2  UNL     1     -34.039   5.025   2.772  1.00 20.00     0.005 C 
HETATM    3  C3  UNL     1     -33.017   6.966   4.132  1.00 20.00     0.007 C 
HETATM    4  C4  UNL     1     -32.558   6.063   0.955  1.00 20.00     0.040 C 
HETATM    5  C5  UNL     1     -31.843   7.195   3.180  1.00 20.00     0.040 C 
HETATM    6  C6  UNL     1     -32.911   8.620   1.286  1.00 20.00     0.207 A 
HETATM    7  C7  UNL     1     -33.562   5.529   4.145  1.00 20.00    -0.015 C 
HETATM    8  C8  UNL     1     -32.299   7.311   1.753  1.00 20.00     0.082 A 
HETATM    9  O11 UNL     1     -31.550   8.290   1.005  1.00 20.00    -0.375 OA
ENDROOT
BRANCH   7  10
HETATM   10  C10 UNL     1     -34.711   5.434   5.155  1.00 20.00     0.000 C 
HETATM   11  C9  UNL     1     -34.276   5.854   6.518  1.00 20.00     0.005 C 
ENDBRANCH   7  10
TORSDOF 1
