REMARK  1 active torsions:
REMARK  status: ('A' for Active; 'I' for Inactive)
REMARK    1  A    between atoms: C4_4  and  C8_8 
ROOT
HETATM    1  C5  UNL     1     -33.041   8.777   2.313  1.00 20.00     0.011 C 
HETATM    2  C6  UNL     1     -32.994   9.590   1.015  1.00 20.00     0.021 C 
HETATM    3  C7  UNL     1     -33.041   7.278   0.422  1.00 20.00     0.029 C 
HETATM    4  C8  UNL     1     -32.747   7.310   1.930  1.00 20.00     0.020 C 
HETATM    5  C9  UNL     1     -32.494   8.619  -0.044  1.00 20.00     0.083 C 
HETATM    6 CL11 UNL     1     -33.050   9.044  -1.669  1.00 20.00    -0.125 Cl
ENDROOT
BRANCH   4   7
HETATM    7  C4  UNL     1     -33.453   6.287   2.794  1.00 20.00    -0.047 A 
HETATM    8  C1  UNL     1     -34.358   6.622   3.843  1.00 20.00     0.015 A 
HETATM    9  C2  UNL     1     -34.858   5.504   4.472  1.00 20.00     0.050 A 
HETATM   10  S10 UNL     1     -34.238   4.057   3.798  1.00 20.00    -0.113 SA
HETATM   11  C3  UNL     1     -33.296   4.925   2.662  1.00 20.00     0.057 A 
ENDBRANCH   4   7
TORSDOF 1
