REMARK  1 active torsions:
REMARK  status: ('A' for Active; 'I' for Inactive)
REMARK    1  A    between atoms: C3_3  and  C8_8 
ROOT
HETATM    1  C1  UNL     1     -33.054   6.319   4.459  1.00 20.00     0.022 A 
HETATM    2  C2  UNL     1     -34.895   6.760   3.111  1.00 20.00     0.057 A 
HETATM    3  C3  UNL     1     -33.547   6.979   3.297  1.00 20.00    -0.046 A 
HETATM    4  C4  UNL     1     -34.042   5.622   5.118  1.00 20.00    -0.021 A 
HETATM    5  C10 UNL     1     -33.934   4.815   6.353  1.00 20.00     0.056 C 
HETATM    6  S11 UNL     1     -35.559   5.763   4.335  1.00 20.00    -0.106 SA
ENDROOT
BRANCH   3   7
HETATM    7  C8  UNL     1     -32.691   7.820   2.376  1.00 20.00     0.020 C 
HETATM    8  C5  UNL     1     -32.635   7.256   0.944  1.00 20.00     0.010 C 
HETATM    9  C6  UNL     1     -32.609   8.483   0.043  1.00 20.00     0.016 C 
HETATM   10  C9  UNL     1     -33.535   9.441   0.766  1.00 20.00     0.058 C 
HETATM   11  C7  UNL     1     -33.155   9.286   2.232  1.00 20.00     0.025 C 
HETATM   12 BR12 UNL     1     -33.300  11.257   0.151  1.00 20.00    -0.091 Br
ENDBRANCH   3   7
TORSDOF 1
