REMARK  2 active torsions:
REMARK  status: ('A' for Active; 'I' for Inactive)
REMARK    1  A    between atoms: C8_8  and  C10_10 
REMARK    2  A    between atoms: C10_10  and  C11_11 
ROOT
HETATM    1  C1  UNL     1     -36.139   5.030   4.113  1.00 20.00     0.064 C 
HETATM    2  C2  UNL     1     -33.942   7.214   5.025  1.00 20.00     0.002 C 
HETATM    3  C3  UNL     1     -34.385   5.884   5.640  1.00 20.00     0.019 C 
HETATM    4  C4  UNL     1     -33.775   4.495   3.540  1.00 20.00     0.019 C 
HETATM    5  C5  UNL     1     -32.565   7.127   4.371  1.00 20.00     0.005 C 
HETATM    6  C6  UNL     1     -33.596   5.621   2.519  1.00 20.00     0.006 C 
HETATM    7  C7  UNL     1     -34.790   4.778   4.659  1.00 20.00     0.093 C 
HETATM    8  C8  UNL     1     -32.561   6.690   2.899  1.00 20.00    -0.014 C 
HETATM    9  N12 UNL     1     -37.199   5.227   3.684  1.00 20.00    -0.197 NA
ENDROOT
BRANCH   8  10
HETATM   10  C10 UNL     1     -32.719   7.902   1.973  1.00 20.00     0.004 C 
BRANCH  10  11
HETATM   11  C11 UNL     1     -32.201   7.593   0.575  1.00 20.00    -0.004 C 
HETATM   12  C9  UNL     1     -32.380   8.786  -0.350  1.00 20.00     0.005 C 
ENDBRANCH  10  11
ENDBRANCH   8  10
TORSDOF 2
