REMARK  2 active torsions:
REMARK  status: ('A' for Active; 'I' for Inactive)
REMARK    1  A    between atoms: C8_8  and  C10_10 
REMARK    2  A    between atoms: C10_10  and  C11_11 
ROOT
HETATM    1  C1  UNL     1     -36.269   5.034   4.664  1.00 20.00     0.064 C 
HETATM    2  C2  UNL     1     -33.216   7.346   4.767  1.00 20.00     0.002 C 
HETATM    3  C3  UNL     1     -34.024   6.088   5.086  1.00 20.00     0.019 C 
HETATM    4  C4  UNL     1     -34.578   4.985   2.824  1.00 20.00     0.019 C 
HETATM    5  C5  UNL     1     -32.175   7.197   3.662  1.00 20.00     0.005 C 
HETATM    6  C6  UNL     1     -33.161   5.260   2.320  1.00 20.00     0.006 C 
HETATM    7  C7  UNL     1     -35.093   5.787   4.028  1.00 20.00     0.093 C 
HETATM    8  C8  UNL     1     -32.666   6.708   2.294  1.00 20.00    -0.014 C 
HETATM    9  N12 UNL     1     -37.158   4.464   5.145  1.00 20.00    -0.197 NA
ENDROOT
BRANCH   8  10
HETATM   10  C10 UNL     1     -33.631   7.632   1.677  1.00 20.00     0.004 C 
BRANCH  10  11
HETATM   11  C11 UNL     1     -32.922   8.826   1.055  1.00 20.00    -0.004 C 
HETATM   12  C9  UNL     1     -33.916   9.768   0.395  1.00 20.00     0.005 C 
ENDBRANCH  10  11
ENDBRANCH   8  10
TORSDOF 2
