REMARK  2 active torsions:
REMARK  status: ('A' for Active; 'I' for Inactive)
REMARK    1  A    between atoms: C6_6  and  C9_9 
REMARK    2  A    between atoms: C9_9  and  C10_10 
ROOT
HETATM    1  C1  UNL     1     -33.949   4.429   3.264  1.00 20.00     0.002 C 
HETATM    2  C2  UNL     1     -33.389   5.348   2.177  1.00 20.00     0.005 C 
HETATM    3  C3  UNL     1     -33.429   7.469   3.655  1.00 20.00     0.006 C 
HETATM    4  C4  UNL     1     -35.158   5.032   3.975  1.00 20.00     0.020 C 
HETATM    5  C5  UNL     1     -33.598   6.824   5.030  1.00 20.00     0.020 C 
HETATM    6  C6  UNL     1     -32.633   6.589   2.676  1.00 20.00    -0.014 C 
HETATM    7  C7  UNL     1     -34.827   5.925   5.171  1.00 20.00     0.082 C 
HETATM    8 CL11 UNL     1     -34.626   4.917   6.648  1.00 20.00    -0.125 Cl
ENDROOT
BRANCH   6   9
HETATM    9  C9  UNL     1     -32.197   7.429   1.468  1.00 20.00     0.004 C 
BRANCH   9  10
HETATM   10  C10 UNL     1     -33.361   8.245   0.922  1.00 20.00    -0.004 C 
HETATM   11  C8  UNL     1     -32.923   9.095  -0.259  1.00 20.00     0.005 C 
ENDBRANCH   9  10
ENDBRANCH   6   9
TORSDOF 2
