REMARK  5 active torsions:
REMARK  status: ('A' for Active; 'I' for Inactive)
REMARK    1  A    between atoms: C5_5  and  C7_7 
REMARK    2  A    between atoms: C6_6  and  C8_8 
REMARK    3  A    between atoms: C7_7  and  C9_9 
REMARK    4  A    between atoms: C8_8  and  C9_9 
REMARK    5  A    between atoms: C9_9  and  S11_11 
ROOT
HETATM    1  C1  UNL     1     -32.361   7.696   3.704  1.00 20.00     0.080 C 
HETATM    2  C9  UNL     1     -33.437   6.914   3.057  1.00 20.00     0.096 C 
HETATM    3  N10 UNL     1     -31.518   8.312   4.212  1.00 20.00    -0.196 NA
ENDROOT
BRANCH   2   4
HETATM    4  C7  UNL     1     -33.985   7.690   1.827  1.00 20.00     0.035 C 
BRANCH   4   5
HETATM    5  C5  UNL     1     -32.941   8.031   0.752  1.00 20.00    -0.002 C 
HETATM    6  C2  UNL     1     -33.557   8.847  -0.375  1.00 20.00     0.005 C 
ENDBRANCH   4   5
ENDBRANCH   2   4
BRANCH   2   7
HETATM    7  C8  UNL     1     -34.563   6.594   4.075  1.00 20.00     0.035 C 
BRANCH   7   8
HETATM    8  C6  UNL     1     -34.137   5.845   5.348  1.00 20.00    -0.002 C 
HETATM    9  C3  UNL     1     -35.310   5.674   6.303  1.00 20.00     0.005 C 
ENDBRANCH   7   8
ENDBRANCH   2   7
BRANCH   2  10
HETATM   10  S11 UNL     1     -32.706   5.349   2.391  1.00 20.00    -0.148 SA
HETATM   11  C4  UNL     1     -34.224   4.665   1.700  1.00 20.00     0.091 C 
ENDBRANCH   2  10
TORSDOF 5
