REMARK  0 active torsions:
REMARK  status: ('A' for Active; 'I' for Inactive)
ROOT
HETATM    1  C1  UNL     1     -32.470   7.837   0.900  1.00 20.00     0.064 C 
HETATM    2  C2  UNL     1     -33.545   7.977   4.018  1.00 20.00     0.002 C 
HETATM    3  C3  UNL     1     -32.192   7.729   3.351  1.00 20.00     0.019 C 
HETATM    4  C4  UNL     1     -33.264   5.786   1.991  1.00 20.00     0.020 C 
HETATM    5  C5  UNL     1     -33.944   6.851   4.973  1.00 20.00     0.008 C 
HETATM    6  C6  UNL     1     -33.407   4.972   3.279  1.00 20.00     0.010 C 
HETATM    7  C7  UNL     1     -32.243   6.929   2.044  1.00 20.00     0.093 C 
HETATM    8  C8  UNL     1     -34.402   5.519   4.335  1.00 20.00    -0.048 C 
HETATM    9  C9  UNL     1     -35.819   5.679   3.744  1.00 20.00     0.015 C 
HETATM   10  C10 UNL     1     -34.498   4.470   5.469  1.00 20.00     0.015 C 
HETATM   11  N11 UNL     1     -32.649   8.550   0.002  1.00 20.00    -0.197 NA
ENDROOT
TORSDOF 0
