REMARK  1 active torsions:
REMARK  status: ('A' for Active; 'I' for Inactive)
REMARK    1  A    between atoms: C4_4  and  C9_9 
ROOT
HETATM    1  C5  UNL     1     -33.721   4.575   2.975  1.00 20.00     0.002 C 
HETATM    2  C6  UNL     1     -32.550   5.545   2.864  1.00 20.00     0.009 C 
HETATM    3  C7  UNL     1     -34.488   4.713   4.293  1.00 20.00     0.020 C 
HETATM    4  C8  UNL     1     -34.329   7.186   3.737  1.00 20.00     0.029 C 
HETATM    5  C9  UNL     1     -32.966   7.023   3.030  1.00 20.00     0.020 C 
HETATM    6  C10 UNL     1     -34.559   6.146   4.834  1.00 20.00     0.083 C 
HETATM    7 CL12 UNL     1     -33.374   6.372   6.164  1.00 20.00    -0.125 Cl
ENDROOT
BRANCH   5   8
HETATM    8  C4  UNL     1     -32.940   7.806   1.727  1.00 20.00    -0.047 A 
HETATM    9  C1  UNL     1     -31.786   7.937   0.901  1.00 20.00     0.015 A 
HETATM   10  C2  UNL     1     -32.035   8.698  -0.220  1.00 20.00     0.050 A 
HETATM   11  S11 UNL     1     -33.654   9.253  -0.273  1.00 20.00    -0.113 SA
HETATM   12  C3  UNL     1     -34.027   8.474   1.206  1.00 20.00     0.057 A 
ENDBRANCH   5   8
TORSDOF 1
