REMARK  2 active torsions:
REMARK  status: ('A' for Active; 'I' for Inactive)
REMARK    1  A    between atoms: C7_7  and  C10_10 
REMARK    2  A    between atoms: C10_10  and  C11_11 
ROOT
HETATM    1  C1  UNL     1     -32.988   7.500   5.036  1.00 20.00     0.004 C 
HETATM    2  C2  UNL     1     -31.990   7.315   3.889  1.00 20.00     0.005 C 
HETATM    3  C3  UNL     1     -32.994   5.701   2.182  1.00 20.00     0.007 C 
HETATM    4  C4  UNL     1     -34.312   6.753   4.937  1.00 20.00     0.040 C 
HETATM    5  C5  UNL     1     -34.250   5.218   2.903  1.00 20.00     0.040 C 
HETATM    6  C6  UNL     1     -33.528   4.280   5.232  1.00 20.00     0.207 A 
HETATM    7  C7  UNL     1     -32.591   7.161   2.480  1.00 20.00    -0.014 C 
HETATM    8  C8  UNL     1     -34.166   5.365   4.393  1.00 20.00     0.082 A 
HETATM    9  O12 UNL     1     -34.951   4.390   5.101  1.00 20.00    -0.375 OA
ENDROOT
BRANCH   7  10
HETATM   10  C10 UNL     1     -31.552   7.602   1.440  1.00 20.00     0.004 C 
BRANCH  10  11
HETATM   11  C11 UNL     1     -32.212   7.903   0.101  1.00 20.00    -0.004 C 
HETATM   12  C9  UNL     1     -33.256   8.999   0.241  1.00 20.00     0.005 C 
ENDBRANCH  10  11
ENDBRANCH   7  10
TORSDOF 2
