REMARK  1 active torsions:
REMARK  status: ('A' for Active; 'I' for Inactive)
REMARK    1  A    between atoms: C4_4  and  C8_8 
ROOT
HETATM    1  C5  UNL     1     -34.091   7.080   5.987  1.00 20.00     0.002 C 
HETATM    2  C6  UNL     1     -32.975   7.604   5.084  1.00 20.00     0.011 C 
HETATM    3  C7  UNL     1     -34.277   5.633   5.560  1.00 20.00     0.021 C 
HETATM    4  C8  UNL     1     -32.975   6.698   3.832  1.00 20.00     0.037 C 
HETATM    5  C9  UNL     1     -34.150   5.726   4.046  1.00 20.00     0.090 C 
HETATM    6 CL11 UNL     1     -33.859   4.137   3.310  1.00 20.00    -0.124 Cl
ENDROOT
BRANCH   4   7
HETATM    7  C4  UNL     1     -33.063   7.455   2.524  1.00 20.00    -0.046 A 
HETATM    8  C1  UNL     1     -32.061   7.410   1.512  1.00 20.00     0.015 A 
HETATM    9  C2  UNL     1     -32.389   8.190   0.425  1.00 20.00     0.050 A 
HETATM   10  S10 UNL     1     -33.899   8.972   0.627  1.00 20.00    -0.113 SA
HETATM   11  C3  UNL     1     -34.118   8.268   2.173  1.00 20.00     0.057 A 
ENDBRANCH   4   7
TORSDOF 1
