REMARK  0 active torsions:
REMARK  status: ('A' for Active; 'I' for Inactive)
ROOT
HETATM    1  C1  UNL     1     -32.995   8.531   1.424  1.00 20.00     0.085 C 
HETATM    2  C2  UNL     1     -32.956   4.867   2.660  1.00 20.00     0.004 C 
HETATM    3  C3  UNL     1     -33.143   6.124   1.812  1.00 20.00     0.041 C 
HETATM    4  C4  UNL     1     -34.399   7.800   3.284  1.00 20.00     0.042 C 
HETATM    5  C5  UNL     1     -33.404   4.847   4.119  1.00 20.00     0.009 C 
HETATM    6  C6  UNL     1     -34.646   7.023   4.577  1.00 20.00     0.011 C 
HETATM    7  C7  UNL     1     -33.117   7.503   2.485  1.00 20.00     0.125 C 
HETATM    8  C8  UNL     1     -34.757   5.483   4.496  1.00 20.00    -0.048 C 
HETATM    9  C9  UNL     1     -35.111   4.988   5.923  1.00 20.00     0.015 C 
HETATM   10  C10 UNL     1     -35.895   5.034   3.566  1.00 20.00     0.015 C 
HETATM   11  N11 UNL     1     -32.900   9.335   0.593  1.00 20.00    -0.195 NA
HETATM   12 CL12 UNL     1     -31.646   7.713   3.488  1.00 20.00    -0.103 Cl
ENDROOT
TORSDOF 0
