REMARK  2 active torsions:
REMARK  status: ('A' for Active; 'I' for Inactive)
REMARK    1  A    between atoms: C4_4  and  C10_10 
REMARK    2  A    between atoms: C9_9  and  C10_10 
ROOT
HETATM    1  C1  UNL     1     -32.099   8.962  -0.102  1.00 20.00     0.012 C 
HETATM    2  C2  UNL     1     -32.694   8.266   0.674  1.00 20.00    -0.117 C 
HETATM    3  C9  UNL     1     -33.428   7.414   1.623  1.00 20.00     0.097 C 
ENDROOT
BRANCH   3   4
HETATM    4  C10 UNL     1     -32.526   6.885   2.730  1.00 20.00     0.046 C 
BRANCH   4   5
HETATM    5  C4  UNL     1     -33.286   6.011   3.656  1.00 20.00    -0.081 C 
HETATM    6  C3  UNL     1     -33.961   4.916   3.256  1.00 20.00    -0.004 C 
HETATM    7  C8  UNL     1     -34.736   4.023   4.181  1.00 20.00     0.105 C 
HETATM    8  C7  UNL     1     -34.435   4.273   5.661  1.00 20.00     0.024 C 
HETATM    9 CL11 UNL     1     -34.401   2.311   3.789  1.00 20.00    -0.121 Cl
HETATM   10  C6  UNL     1     -34.382   5.769   5.948  1.00 20.00     0.006 C 
HETATM   11  C5  UNL     1     -33.296   6.444   5.107  1.00 20.00     0.034 C 
ENDBRANCH   4   5
ENDBRANCH   3   4
TORSDOF 2
