REMARK  2 active torsions:
REMARK  status: ('A' for Active; 'I' for Inactive)
REMARK    1  A    between atoms: C2_2  and  C8_8 
REMARK    2  A    between atoms: C4_4  and  C8_8 
ROOT
HETATM    1  C1  UNL     1     -34.455   6.268   3.129  1.00 20.00    -0.004 C 
HETATM    2  C2  UNL     1     -33.279   6.887   2.965  1.00 20.00    -0.079 C 
HETATM    3  C5  UNL     1     -32.647   7.225   4.279  1.00 20.00     0.036 C 
HETATM    4  C6  UNL     1     -33.808   7.043   5.260  1.00 20.00     0.028 C 
HETATM    5  C7  UNL     1     -34.795   6.097   4.573  1.00 20.00     0.105 C 
HETATM    6 CL9  UNL     1     -34.528   4.407   5.054  1.00 20.00    -0.121 Cl
ENDROOT
BRANCH   2   7
HETATM    7  C8  UNL     1     -32.604   7.200   1.680  1.00 20.00     0.060 C 
BRANCH   7   8
HETATM    8  C4  UNL     1     -33.007   8.539   1.135  1.00 20.00    -0.033 C 
HETATM    9  C3  UNL     1     -33.613   8.718  -0.044  1.00 20.00     0.007 C 
ENDBRANCH   7   8
ENDBRANCH   2   7
TORSDOF 2
