REMARK  3 active torsions:
REMARK  status: ('A' for Active; 'I' for Inactive)
REMARK    1  A    between atoms: C4_4  and  C10_10 
REMARK    2  A    between atoms: C8_8  and  O11_11 
REMARK    3  A    between atoms: C9_9  and  C10_10 
ROOT
HETATM    1  C1  UNL     1     -31.993   9.134  -0.685  1.00 20.00     0.012 C 
HETATM    2  C2  UNL     1     -32.565   8.616   0.235  1.00 20.00    -0.117 C 
HETATM    3  C9  UNL     1     -33.270   7.983   1.360  1.00 20.00     0.097 C 
ENDROOT
BRANCH   3   4
HETATM    4  C10 UNL     1     -32.381   7.000   2.110  1.00 20.00     0.046 C 
BRANCH   4   5
HETATM    5  C4  UNL     1     -33.135   6.357   3.236  1.00 20.00    -0.080 C 
HETATM    6  C3  UNL     1     -33.110   6.856   4.485  1.00 20.00     0.007 C 
HETATM    7  C8  UNL     1     -33.875   6.260   5.631  1.00 20.00     0.141 C 
HETATM    8  C7  UNL     1     -34.942   5.258   5.183  1.00 20.00     0.036 C 
HETATM    9  C6  UNL     1     -34.399   4.327   4.107  1.00 20.00     0.007 C 
HETATM   10  C5  UNL     1     -33.923   5.118   2.885  1.00 20.00     0.034 C 
BRANCH   7  11
HETATM   11  O11 UNL     1     -34.505   7.314   6.354  1.00 20.00    -0.392 OA
HETATM   12  H25 UNL     1     -34.989   6.898   7.084  1.00 20.00     0.210 HD
ENDBRANCH   7  11
ENDBRANCH   4   5
ENDBRANCH   3   4
TORSDOF 3
