REMARK  2 active torsions:
REMARK  status: ('A' for Active; 'I' for Inactive)
REMARK    1  A    between atoms: C3_3  and  C8_8 
REMARK    2  A    between atoms: C8_8  and  C9_9 
ROOT
HETATM    1  C1  UNL     1     -32.800   8.791   1.299  1.00 20.00     0.044 A 
HETATM    2  C2  UNL     1     -32.558   8.123   0.117  1.00 20.00     0.005 A 
HETATM    3  C3  UNL     1     -32.810   6.739   2.072  1.00 20.00     0.081 A 
HETATM    4  C4  UNL     1     -32.919  10.255   1.462  1.00 20.00     0.071 C 
HETATM    5  C5  UNL     1     -32.358   8.648  -1.248  1.00 20.00     0.058 C 
HETATM    6  N10 UNL     1     -32.945   7.999   2.421  1.00 20.00    -0.249 NA
HETATM    7  S11 UNL     1     -32.506   6.434   0.411  1.00 20.00    -0.077 SA
ENDROOT
BRANCH   3   8
HETATM    8  C8  UNL     1     -32.907   5.562   3.036  1.00 20.00     0.059 C 
HETATM    9  C6  UNL     1     -33.337   4.310   2.254  1.00 20.00     0.018 C 
BRANCH   8  10
HETATM   10  C9  UNL     1     -33.838   5.860   4.241  1.00 20.00     0.088 C 
HETATM   11  C7  UNL     1     -35.258   6.239   3.821  1.00 20.00     0.027 C 
HETATM   12 CL12 UNL     1     -33.186   7.213   5.230  1.00 20.00    -0.125 Cl
ENDBRANCH   8  10
ENDBRANCH   3   8
TORSDOF 2
