REMARK  2 active torsions:
REMARK  status: ('A' for Active; 'I' for Inactive)
REMARK    1  A    between atoms: C2_2  and  C9_9 
REMARK    2  A    between atoms: C4_4  and  C9_9 
ROOT
HETATM    1  C1  UNL     1     -32.747   6.782   3.573  1.00 20.00    -0.004 C 
HETATM    2  C2  UNL     1     -33.054   6.461   2.301  1.00 20.00    -0.079 C 
HETATM    3  C5  UNL     1     -33.811   5.190   1.980  1.00 20.00     0.034 C 
HETATM    4  C6  UNL     1     -33.860   4.189   3.137  1.00 20.00     0.006 C 
HETATM    5  C7  UNL     1     -34.195   4.894   4.447  1.00 20.00     0.024 C 
HETATM    6  C8  UNL     1     -33.142   5.958   4.765  1.00 20.00     0.105 C 
HETATM    7 CL10 UNL     1     -33.750   7.026   6.062  1.00 20.00    -0.121 Cl
ENDROOT
BRANCH   2   8
HETATM    8  C9  UNL     1     -32.657   7.284   1.133  1.00 20.00     0.060 C 
BRANCH   8   9
HETATM    9  C4  UNL     1     -33.233   8.663   1.201  1.00 20.00    -0.033 C 
HETATM   10  C3  UNL     1     -33.032   9.602   0.269  1.00 20.00     0.007 C 
ENDBRANCH   8   9
ENDBRANCH   2   8
TORSDOF 2
