REMARK  0 active torsions:
REMARK  status: ('A' for Active; 'I' for Inactive)
ROOT
HETATM    1  C1  UNL     1     -32.656   7.095   0.973  1.00 20.00     0.019 A 
HETATM    2  C2  UNL     1     -32.410   8.221   0.220  1.00 20.00     0.050 A 
HETATM    3  C3  UNL     1     -33.194   8.776   2.484  1.00 20.00     0.061 A 
HETATM    4  C4  UNL     1     -33.111   7.416   2.284  1.00 20.00    -0.023 A 
HETATM    5  C5  UNL     1     -33.872   6.709   4.526  1.00 20.00     0.058 A 
HETATM    6  C6  UNL     1     -33.441   6.476   3.279  1.00 20.00    -0.043 A 
HETATM    7  C7  UNL     1     -34.074   5.396   5.154  1.00 20.00     0.150 A 
HETATM    8  C8  UNL     1     -33.316   5.009   2.955  1.00 20.00     0.047 A 
HETATM    9  C9  UNL     1     -33.740   4.275   4.221  1.00 20.00     0.087 A 
HETATM   10  O10 UNL     1     -34.467   5.258   6.302  1.00 20.00    -0.293 OA
HETATM   11  S11 UNL     1     -32.726   9.660   1.094  1.00 20.00    -0.113 SA
ENDROOT
TORSDOF 0
