REMARK  1 active torsions:
REMARK  status: ('A' for Active; 'I' for Inactive)
REMARK    1  A    between atoms: C2_2  and  C9_9 
ROOT
HETATM    1  C1  UNL     1     -33.137   6.696   4.039  1.00 20.00    -0.004 C 
HETATM    2  C2  UNL     1     -33.201   6.736   2.694  1.00 20.00    -0.078 C 
HETATM    3  C3  UNL     1     -33.609   5.515   1.898  1.00 20.00     0.034 C 
HETATM    4  C4  UNL     1     -33.579   4.213   2.702  1.00 20.00     0.006 C 
HETATM    5  C5  UNL     1     -34.226   4.408   4.068  1.00 20.00     0.024 C 
HETATM    6  C8  UNL     1     -33.485   5.488   4.860  1.00 20.00     0.105 C 
HETATM    7 CL10 UNL     1     -34.476   5.978   6.265  1.00 20.00    -0.121 Cl
ENDROOT
BRANCH   2   8
HETATM    8  C9  UNL     1     -32.853   7.937   1.896  1.00 20.00     0.014 A 
HETATM    9  C6  UNL     1     -31.678   7.854   0.981  1.00 20.00     0.010 A 
HETATM   10  C7  UNL     1     -33.068   7.885   0.421  1.00 20.00     0.010 A 
ENDBRANCH   2   8
TORSDOF 1
