REMARK  4 active torsions:
REMARK  status: ('A' for Active; 'I' for Inactive)
REMARK    1  A    between atoms: C2_2  and  C7_7 
REMARK    2  A    between atoms: C7_7  and  C8_8 
REMARK    3  A    between atoms: C8_8  and  C9_9 
REMARK    4  A    between atoms: C9_9  and  O10_10 
ROOT
HETATM    1  C1  UNL     1     -34.918   6.164   4.417  1.00 20.00    -0.004 C 
HETATM    2  C2  UNL     1     -33.843   6.670   3.800  1.00 20.00    -0.082 C 
HETATM    3  C3  UNL     1     -32.802   7.110   4.782  1.00 20.00     0.036 C 
HETATM    4  C4  UNL     1     -33.578   7.130   6.100  1.00 20.00     0.028 C 
HETATM    5  C5  UNL     1     -34.768   6.187   5.903  1.00 20.00     0.105 C 
HETATM    6 CL11 UNL     1     -34.412   4.549   6.493  1.00 20.00    -0.121 Cl
ENDROOT
BRANCH   2   7
HETATM    7  C7  UNL     1     -33.620   6.781   2.336  1.00 20.00     0.036 C 
BRANCH   7   8
HETATM    8  C8  UNL     1     -32.683   7.938   2.006  1.00 20.00     0.030 C 
BRANCH   8   9
HETATM    9  C9  UNL     1     -32.379   8.045   0.517  1.00 20.00     0.167 C 
BRANCH   9  10
HETATM   10  O10 UNL     1     -33.600   8.231  -0.187  1.00 20.00    -0.396 OA
HETATM   11  C6  UNL     1     -34.049   9.577  -0.107  1.00 20.00     0.201 C 
ENDBRANCH   9  10
ENDBRANCH   8   9
ENDBRANCH   7   8
ENDBRANCH   2   7
TORSDOF 4
