REMARK  1 active torsions:
REMARK  status: ('A' for Active; 'I' for Inactive)
REMARK    1  A    between atoms: C2_2  and  C8_8 
ROOT
HETATM    1  C1  UNL     1     -33.158   6.984   3.812  1.00 20.00    -0.004 C 
HETATM    2  C2  UNL     1     -34.040   6.103   4.299  1.00 20.00    -0.079 C 
HETATM    3  C3  UNL     1     -34.389   5.056   3.287  1.00 20.00     0.036 C 
HETATM    4  C4  UNL     1     -33.292   5.235   2.235  1.00 20.00     0.028 C 
HETATM    5  C5  UNL     1     -32.777   6.667   2.403  1.00 20.00     0.105 C 
HETATM    6 CL9  UNL     1     -33.593   7.792   1.295  1.00 20.00    -0.121 Cl
ENDROOT
BRANCH   2   7
HETATM    7  C8  UNL     1     -34.667   6.115   5.645  1.00 20.00     0.006 C 
HETATM    8  C6  UNL     1     -34.358   4.820   6.399  1.00 20.00     0.014 C 
HETATM    9  C7  UNL     1     -34.209   7.328   6.460  1.00 20.00     0.014 C 
ENDBRANCH   2   7
TORSDOF 1
