REMARK  1 active torsions:
REMARK  status: ('A' for Active; 'I' for Inactive)
REMARK    1  A    between atoms: C2_2  and  C11_11 
ROOT
HETATM    1  C1  UNL     1     -33.506   6.052   2.817  1.00 20.00     0.053 C 
HETATM    2  C2  UNL     1     -32.663   7.083   2.976  1.00 20.00    -0.072 C 
HETATM    3  C3  UNL     1     -34.003   5.293   3.992  1.00 20.00     0.149 C 
HETATM    4  C4  UNL     1     -32.222   7.579   4.330  1.00 20.00     0.035 C 
HETATM    5  C5  UNL     1     -33.465   5.648   5.359  1.00 20.00     0.083 C 
HETATM    6  C6  UNL     1     -33.157   7.134   5.451  1.00 20.00     0.012 C 
HETATM    7  O12 UNL     1     -34.785   4.358   3.829  1.00 20.00    -0.293 OA
ENDROOT
BRANCH   2   8
HETATM    8  C11 UNL     1     -32.091   7.825   1.782  1.00 20.00     0.014 C 
HETATM    9  C9  UNL     1     -33.042   8.953   1.387  1.00 20.00     0.009 C 
HETATM   10  C7  UNL     1     -33.431   8.680  -0.062  1.00 20.00     0.001 C 
HETATM   11  C8  UNL     1     -33.294   7.175  -0.206  1.00 20.00     0.001 C 
HETATM   12  C10 UNL     1     -32.037   6.867   0.596  1.00 20.00     0.009 C 
ENDBRANCH   2   8
TORSDOF 1
