REMARK  1 active torsions:
REMARK  status: ('A' for Active; 'I' for Inactive)
REMARK    1  A    between atoms: C4_4  and  C6_6 
ROOT
HETATM    1  C5  UNL     1     -33.644   6.565   4.091  1.00 20.00     0.001 C 
HETATM    2  C6  UNL     1     -33.432   6.345   2.784  1.00 20.00    -0.048 C 
HETATM    3  C7  UNL     1     -33.955   4.993   2.386  1.00 20.00     0.041 C 
HETATM    4  C8  UNL     1     -34.134   4.287   3.731  1.00 20.00     0.028 C 
HETATM    5  C9  UNL     1     -34.325   5.410   4.748  1.00 20.00     0.106 C 
HETATM    6 CL11 UNL     1     -33.589   5.011   6.306  1.00 20.00    -0.121 Cl
ENDROOT
BRANCH   2   7
HETATM    7  C4  UNL     1     -32.823   7.276   1.817  1.00 20.00    -0.006 A 
HETATM    8  C1  UNL     1     -33.393   7.812   0.638  1.00 20.00     0.038 A 
HETATM    9  C2  UNL     1     -32.431   8.625   0.085  1.00 20.00     0.142 A 
HETATM   10  O10 UNL     1     -31.307   8.623   0.848  1.00 20.00    -0.334 OA
HETATM   11  C3  UNL     1     -31.554   7.800   1.901  1.00 20.00     0.153 A 
ENDBRANCH   2   7
TORSDOF 1
