REMARK  1 active torsions:
REMARK  status: ('A' for Active; 'I' for Inactive)
REMARK    1  A    between atoms: C2_2  and  C8_8 
ROOT
HETATM    1  C1  UNL     1     -32.854   5.424   1.580  1.00 20.00     0.053 C 
HETATM    2  C2  UNL     1     -32.782   6.719   1.919  1.00 20.00    -0.072 C 
HETATM    3  C3  UNL     1     -33.036   4.380   2.617  1.00 20.00     0.150 C 
HETATM    4  C4  UNL     1     -32.923   7.203   3.341  1.00 20.00     0.043 C 
HETATM    5  C5  UNL     1     -33.056   4.795   4.072  1.00 20.00     0.092 C 
HETATM    6  C9  UNL     1     -33.638   6.203   4.277  1.00 20.00    -0.037 C 
HETATM    7  C10 UNL     1     -33.421   6.635   5.738  1.00 20.00     0.015 C 
HETATM    8  C11 UNL     1     -35.158   6.198   4.003  1.00 20.00     0.015 C 
HETATM    9  O12 UNL     1     -33.108   3.198   2.284  1.00 20.00    -0.293 OA
ENDROOT
BRANCH   2  10
HETATM   10  C8  UNL     1     -32.540   7.782   0.887  1.00 20.00     0.014 A 
HETATM   11  C6  UNL     1     -33.205   9.101   1.075  1.00 20.00     0.010 A 
HETATM   12  C7  UNL     1     -31.726   8.966   1.282  1.00 20.00     0.010 A 
ENDBRANCH   2  10
TORSDOF 1
