REMARK  1 active torsions:
REMARK  status: ('A' for Active; 'I' for Inactive)
REMARK    1  A    between atoms: C2_2  and  C10_10 
ROOT
HETATM    1  C1  UNL     1     -33.234   7.152   3.805  1.00 20.00    -0.003 C 
HETATM    2  C2  UNL     1     -33.217   7.133   2.457  1.00 20.00    -0.075 C 
HETATM    3  C3  UNL     1     -33.604   5.886   1.692  1.00 20.00     0.034 C 
HETATM    4  C4  UNL     1     -33.652   4.621   2.552  1.00 20.00     0.006 C 
HETATM    5  C5  UNL     1     -34.375   4.890   3.867  1.00 20.00     0.024 C 
HETATM    6  C6  UNL     1     -33.659   5.990   4.655  1.00 20.00     0.105 C 
HETATM    7 CL11 UNL     1     -34.720   6.561   5.974  1.00 20.00    -0.121 Cl
ENDROOT
BRANCH   2   8
HETATM    8  C10 UNL     1     -32.795   8.290   1.630  1.00 20.00    -0.028 C 
HETATM    9  C7  UNL     1     -33.521   8.239   0.277  1.00 20.00     0.019 C 
HETATM   10  C8  UNL     1     -31.276   8.237   1.397  1.00 20.00     0.019 C 
HETATM   11  C9  UNL     1     -33.147   9.602   2.351  1.00 20.00     0.019 C 
ENDBRANCH   2   8
TORSDOF 1
