REMARK  2 active torsions:
REMARK  status: ('A' for Active; 'I' for Inactive)
REMARK    1  A    between atoms: C4_4  and  C9_9 
REMARK    2  A    between atoms: C8_8  and  O10_10 
ROOT
HETATM    1  C1  UNL     1     -32.870   9.122   0.232  1.00 20.00     0.012 C 
HETATM    2  C2  UNL     1     -32.723   7.965   0.518  1.00 20.00    -0.113 C 
HETATM    3  C9  UNL     1     -32.533   6.555   0.848  1.00 20.00     0.127 C 
ENDROOT
BRANCH   3   4
HETATM    4  C4  UNL     1     -33.201   6.249   2.156  1.00 20.00    -0.070 C 
HETATM    5  C3  UNL     1     -33.303   7.166   3.134  1.00 20.00     0.008 C 
HETATM    6  C8  UNL     1     -33.936   6.890   4.467  1.00 20.00     0.141 C 
HETATM    7  C7  UNL     1     -34.138   5.397   4.737  1.00 20.00     0.036 C 
HETATM    8  C6  UNL     1     -34.692   4.690   3.507  1.00 20.00     0.007 C 
HETATM    9  C5  UNL     1     -33.750   4.851   2.311  1.00 20.00     0.035 C 
BRANCH   6  10
HETATM   10  O10 UNL     1     -33.105   7.437   5.488  1.00 20.00    -0.392 OA
HETATM   11  H22 UNL     1     -33.540   7.242   6.332  1.00 20.00     0.210 HD
ENDBRANCH   6  10
ENDBRANCH   3   4
TORSDOF 2
