REMARK  1 active torsions:
REMARK  status: ('A' for Active; 'I' for Inactive)
REMARK    1  A    between atoms: C2_2  and  C10_10 
ROOT
HETATM    1  C1  UNL     1     -33.626   7.562   1.845  1.00 20.00    -0.004 C 
HETATM    2  C2  UNL     1     -32.734   6.990   2.662  1.00 20.00    -0.078 C 
HETATM    3  C3  UNL     1     -31.329   7.282   2.234  1.00 20.00     0.036 C 
HETATM    4  C4  UNL     1     -31.521   7.814   0.812  1.00 20.00     0.028 C 
HETATM    5  C9  UNL     1     -32.963   8.323   0.744  1.00 20.00     0.105 C 
HETATM    6 CL12 UNL     1     -33.060  10.066   1.079  1.00 20.00    -0.121 Cl
ENDROOT
BRANCH   2   7
HETATM    7  C10 UNL     1     -33.026   6.169   3.903  1.00 20.00     0.018 C 
HETATM    8  C5  UNL     1     -33.797   7.043   4.884  1.00 20.00     0.035 C 
HETATM    9  C7  UNL     1     -34.327   6.203   6.040  1.00 20.00     0.168 C 
HETATM   10  O11 UNL     1     -35.126   5.123   5.555  1.00 20.00    -0.391 OA
HETATM   11  C8  UNL     1     -34.382   4.233   4.723  1.00 20.00     0.168 C 
HETATM   12  C6  UNL     1     -33.855   4.959   3.491  1.00 20.00     0.035 C 
ENDBRANCH   2   7
TORSDOF 1
