REMARK  1 active torsions:
REMARK  status: ('A' for Active; 'I' for Inactive)
REMARK    1  A    between atoms: C2_2  and  C10_10 
ROOT
HETATM    1  C1  UNL     1     -33.966   5.701   3.553  1.00 20.00    -0.004 C 
HETATM    2  C2  UNL     1     -33.515   6.943   3.819  1.00 20.00    -0.076 C 
HETATM    3  C3  UNL     1     -33.581   7.514   5.219  1.00 20.00     0.034 C 
HETATM    4  C4  UNL     1     -33.853   6.473   6.308  1.00 20.00     0.006 C 
HETATM    5  C5  UNL     1     -34.953   5.507   5.876  1.00 20.00     0.024 C 
HETATM    6  C9  UNL     1     -34.594   4.793   4.570  1.00 20.00     0.105 C 
HETATM    7 CL12 UNL     1     -33.458   3.444   4.889  1.00 20.00    -0.121 Cl
ENDROOT
BRANCH   2   8
HETATM    8  C10 UNL     1     -32.908   7.833   2.790  1.00 20.00     0.040 C 
HETATM    9  C6  UNL     1     -32.894   7.236   1.397  1.00 20.00     0.037 C 
HETATM   10  C7  UNL     1     -32.735   8.467   0.533  1.00 20.00     0.168 C 
HETATM   11  O11 UNL     1     -33.435   9.524   1.201  1.00 20.00    -0.390 OA
HETATM   12  C8  UNL     1     -33.678   9.125   2.559  1.00 20.00     0.176 C 
ENDBRANCH   2   8
TORSDOF 1
