REMARK  4 active torsions:
REMARK  status: ('A' for Active; 'I' for Inactive)
REMARK    1  A    between atoms: C2_2  and  C8_8 
REMARK    2  A    between atoms: C8_8  and  C11_11 
REMARK    3  A    between atoms: C9_9  and  C10_10 
REMARK    4  A    between atoms: C10_10  and  C11_11 
ROOT
HETATM    1  C1  UNL     1     -33.608   8.658   2.377  1.00 20.00    -0.004 C 
HETATM    2  C2  UNL     1     -32.755   7.628   2.306  1.00 20.00    -0.082 C 
HETATM    3  C3  UNL     1     -32.022   7.607   1.002  1.00 20.00     0.036 C 
HETATM    4  C4  UNL     1     -32.301   9.001   0.438  1.00 20.00     0.028 C 
HETATM    5  C5  UNL     1     -33.584   9.473   1.127  1.00 20.00     0.105 C 
HETATM    6 CL12 UNL     1     -33.539  11.207   1.476  1.00 20.00    -0.121 Cl
ENDROOT
BRANCH   2   7
HETATM    7  C8  UNL     1     -32.536   6.576   3.332  1.00 20.00     0.038 C 
BRANCH   7   8
HETATM    8  C11 UNL     1     -33.495   5.373   3.240  1.00 20.00    -0.015 C 
HETATM    9  C7  UNL     1     -33.675   4.916   1.788  1.00 20.00     0.010 C 
BRANCH   8  10
HETATM   10  C10 UNL     1     -34.877   5.618   3.883  1.00 20.00     0.004 C 
BRANCH  10  11
HETATM   11  C9  UNL     1     -34.855   5.582   5.412  1.00 20.00    -0.004 C 
HETATM   12  C6  UNL     1     -34.359   4.239   5.928  1.00 20.00     0.005 C 
ENDBRANCH  10  11
ENDBRANCH   8  10
ENDBRANCH   7   8
ENDBRANCH   2   7
TORSDOF 4
