REMARK  1 active torsions:
REMARK  status: ('A' for Active; 'I' for Inactive)
REMARK    1  A    between atoms: C2_2  and  C10_10 
ROOT
HETATM    1  C1  UNL     1     -32.711   6.985   3.404  1.00 20.00    -0.003 C 
HETATM    2  C2  UNL     1     -33.376   5.929   3.905  1.00 20.00    -0.075 C 
HETATM    3  C3  UNL     1     -33.660   4.696   3.083  1.00 20.00     0.034 C 
HETATM    4  C4  UNL     1     -33.414   4.881   1.583  1.00 20.00     0.006 C 
HETATM    5  C5  UNL     1     -32.131   5.665   1.325  1.00 20.00     0.024 C 
HETATM    6  C6  UNL     1     -32.155   7.036   2.010  1.00 20.00     0.105 C 
HETATM    7 CL11 UNL     1     -33.138   8.193   1.059  1.00 20.00    -0.121 Cl
ENDROOT
BRANCH   2   8
HETATM    8  C10 UNL     1     -33.876   5.907   5.319  1.00 20.00    -0.028 C 
HETATM    9  C7  UNL     1     -33.226   4.734   6.068  1.00 20.00     0.019 C 
HETATM   10  C8  UNL     1     -35.403   5.737   5.328  1.00 20.00     0.019 C 
HETATM   11  C9  UNL     1     -33.512   7.226   6.020  1.00 20.00     0.019 C 
ENDBRANCH   2   8
TORSDOF 1
