REMARK  0 active torsions:
REMARK  status: ('A' for Active; 'I' for Inactive)
ROOT
HETATM    1  C1  UNL     1     -33.708   7.392   2.018  1.00 20.00     0.067 C 
HETATM    2  C2  UNL     1     -34.474   6.443   2.829  1.00 20.00     0.127 C 
HETATM    3  C3  UNL     1     -34.585   6.791   4.316  1.00 20.00     0.030 C 
HETATM    4  C4  UNL     1     -33.965   4.995   2.821  1.00 20.00     0.136 C 
HETATM    5  C5  UNL     1     -34.976   5.422   4.879  1.00 20.00     0.123 C 
HETATM    6  C6  UNL     1     -33.306   7.365   4.935  1.00 20.00     0.014 C 
HETATM    7  C7  UNL     1     -32.501   4.772   2.464  1.00 20.00     0.041 C 
HETATM    8  C8  UNL     1     -34.779   5.212   6.369  1.00 20.00     0.040 C 
HETATM    9  N9  UNL     1     -33.100   8.143   1.375  1.00 20.00    -0.197 NA
HETATM   10  O10 UNL     1     -34.180   4.475   4.150  1.00 20.00    -0.380 OA
ENDROOT
TORSDOF 0
