REMARK  1 active torsions:
REMARK  status: ('A' for Active; 'I' for Inactive)
REMARK    1  A    between atoms: C2_2  and  C8_8 
ROOT
HETATM    1  C1  UNL     1     -33.372   7.500   3.748  1.00 20.00     0.018 C 
HETATM    2  C2  UNL     1     -33.629   6.870   2.375  1.00 20.00     0.034 C 
HETATM    3  C3  UNL     1     -34.219   6.579   4.630  1.00 20.00     0.122 C 
HETATM    4  C4  UNL     1     -33.790   5.372   2.679  1.00 20.00     0.123 C 
HETATM    5  C5  UNL     1     -31.898   7.568   4.150  1.00 20.00     0.013 C 
HETATM    6  C6  UNL     1     -33.905   6.574   6.114  1.00 20.00     0.040 C 
HETATM    7  C7  UNL     1     -32.622   4.464   2.327  1.00 20.00     0.040 C 
HETATM    8  O9  UNL     1     -34.035   5.259   4.095  1.00 20.00    -0.381 OA
ENDROOT
BRANCH   2   9
HETATM    9  C8  UNL     1     -32.661   7.239   1.262  1.00 20.00     0.122 C 
HETATM   10 CL10 UNL     1     -32.695   8.987   0.981  1.00 20.00    -0.130 Cl
ENDBRANCH   2   9
TORSDOF 1
