REMARK  1 active torsions:
REMARK  status: ('A' for Active; 'I' for Inactive)
REMARK    1  A    between atoms: C4_4  and  C8_8 
ROOT
HETATM    1  C1  UNL     1     -32.595   7.937   0.463  1.00 20.00     0.012 C 
HETATM    2  C2  UNL     1     -32.338   7.626   1.594  1.00 20.00    -0.113 C 
HETATM    3  C8  UNL     1     -32.018   7.247   2.974  1.00 20.00     0.126 C 
ENDROOT
BRANCH   3   4
HETATM    4  C4  UNL     1     -33.139   6.477   3.568  1.00 20.00    -0.071 C 
HETATM    5  C3  UNL     1     -33.839   6.787   4.668  1.00 20.00    -0.003 C 
HETATM    6  C7  UNL     1     -34.869   5.753   4.980  1.00 20.00     0.105 C 
HETATM    7  C6  UNL     1     -34.932   4.945   3.681  1.00 20.00     0.028 C 
HETATM    8 CL9  UNL     1     -34.323   4.757   6.347  1.00 20.00    -0.121 Cl
HETATM    9  C5  UNL     1     -33.596   5.181   2.974  1.00 20.00     0.036 C 
ENDBRANCH   3   4
TORSDOF 1
