REMARK  1 active torsions:
REMARK  status: ('A' for Active; 'I' for Inactive)
REMARK    1  A    between atoms: C3_3  and  C5_5 
ROOT
HETATM    1  C1  UNL     1     -34.164   5.659   6.385  1.00 20.00     0.109 A 
HETATM    2  C2  UNL     1     -34.393   4.544   5.629  1.00 20.00     0.107 A 
HETATM    3  C3  UNL     1     -33.803   6.185   4.265  1.00 20.00     0.113 A 
HETATM    4  C10 UNL     1     -33.466   8.016   5.903  1.00 20.00     0.157 C 
HETATM    5  N11 UNL     1     -33.799   6.659   5.515  1.00 20.00    -0.346 N 
HETATM    6  N12 UNL     1     -34.162   4.898   4.321  1.00 20.00    -0.350 N 
HETATM    7  H27 UNL     1     -34.251   4.277   3.522  1.00 20.00     0.166 HD
ENDROOT
BRANCH   3   8
HETATM    8  C5  UNL     1     -33.472   6.928   3.024  1.00 20.00    -0.016 C 
HETATM    9  C4  UNL     1     -34.179   8.016   2.660  1.00 20.00     0.004 C 
HETATM   10  C9  UNL     1     -33.913   8.810   1.413  1.00 20.00     0.105 C 
HETATM   11  C8  UNL     1     -32.964   8.107   0.437  1.00 20.00     0.024 C 
HETATM   12 CL13 UNL     1     -33.238  10.397   1.901  1.00 20.00    -0.121 Cl
HETATM   13  C7  UNL     1     -31.806   7.432   1.166  1.00 20.00     0.006 C 
HETATM   14  C6  UNL     1     -32.326   6.412   2.184  1.00 20.00     0.042 C 
ENDBRANCH   3   8
TORSDOF 1
