REMARK  0 active torsions:
REMARK  status: ('A' for Active; 'I' for Inactive)
ROOT
HETATM    1  C1  UNL     1     -33.133   7.408   2.648  1.00 20.00     0.067 C 
HETATM    2  C2  UNL     1     -34.127   6.893   3.595  1.00 20.00     0.127 C 
HETATM    3  C3  UNL     1     -33.536   6.495   4.940  1.00 20.00     0.030 C 
HETATM    4  C4  UNL     1     -34.821   5.601   3.155  1.00 20.00     0.136 C 
HETATM    5  C5  UNL     1     -34.649   5.609   5.495  1.00 20.00     0.123 C 
HETATM    6  C6  UNL     1     -33.199   7.673   5.845  1.00 20.00     0.014 C 
HETATM    7  C7  UNL     1     -33.969   4.617   2.356  1.00 20.00     0.041 C 
HETATM    8  C8  UNL     1     -34.170   4.587   6.511  1.00 20.00     0.040 C 
HETATM    9  N9  UNL     1     -32.347   7.816   1.899  1.00 20.00    -0.197 NA
HETATM   10  O10 UNL     1     -35.217   4.924   4.366  1.00 20.00    -0.380 OA
ENDROOT
TORSDOF 0
