REMARK  2 active torsions:
REMARK  status: ('A' for Active; 'I' for Inactive)
REMARK    1  A    between atoms: C4_4  and  C5_5 
REMARK    2  A    between atoms: C4_4  and  C6_6 
ROOT
HETATM    1  C1  UNL     1     -32.848   7.124   1.834  1.00 20.00     0.063 C 
HETATM    2  C2  UNL     1     -33.435   4.860   2.580  1.00 20.00     0.025 C 
HETATM    3  C5  UNL     1     -32.983   6.255   3.020  1.00 20.00     0.090 C 
HETATM    4  N7  UNL     1     -32.740   7.807   0.903  1.00 20.00    -0.197 NA
ENDROOT
BRANCH   3   5
HETATM    5  C4  UNL     1     -33.991   6.843   4.030  1.00 20.00     0.034 C 
BRANCH   5   6
HETATM    6  C6  UNL     1     -33.808   6.364   5.477  1.00 20.00     0.055 C 
HETATM    7  C3  UNL     1     -34.409   7.350   6.471  1.00 20.00     0.022 C 
HETATM    8 BR8  UNL     1     -34.703   4.637   5.734  1.00 20.00    -0.092 Br
ENDBRANCH   5   6
ENDBRANCH   3   5
TORSDOF 2
