REMARK  2 active torsions:
REMARK  status: ('A' for Active; 'I' for Inactive)
REMARK    1  A    between atoms: C5_5  and  C6_6 
REMARK    2  A    between atoms: C5_5  and  C7_7 
ROOT
HETATM    1  C1  UNL     1     -34.235   6.137   3.836  1.00 20.00     0.068 C 
HETATM    2  C3  UNL     1     -32.122   7.350   3.960  1.00 20.00     0.031 C 
HETATM    3  C4  UNL     1     -32.459   5.588   2.222  1.00 20.00     0.031 C 
HETATM    4  C7  UNL     1     -33.153   6.712   3.005  1.00 20.00     0.043 C 
HETATM    5  N8  UNL     1     -35.074   5.685   4.499  1.00 20.00    -0.196 NA
ENDROOT
BRANCH   4   6
HETATM    6  C5  UNL     1     -33.697   7.828   2.066  1.00 20.00     0.043 C 
BRANCH   6   7
HETATM    7  C6  UNL     1     -32.707   8.533   1.117  1.00 20.00     0.080 C 
HETATM    8  C2  UNL     1     -33.280   9.866   0.638  1.00 20.00     0.026 C 
HETATM    9 CL9  UNL     1     -32.319   7.544  -0.319  1.00 20.00    -0.125 Cl
ENDBRANCH   6   7
ENDBRANCH   4   6
TORSDOF 2
