REMARK  3 active torsions:
REMARK  status: ('A' for Active; 'I' for Inactive)
REMARK    1  A    between atoms: C4_4  and  C5_5 
REMARK    2  A    between atoms: C5_5  and  C7_7 
REMARK    3  A    between atoms: C6_6  and  C7_7 
ROOT
HETATM    1  C1  UNL     1     -33.041   8.460   1.036  1.00 20.00     0.059 C 
HETATM    2  C4  UNL     1     -32.161   7.334   1.377  1.00 20.00     0.125 C 
HETATM    3  N8  UNL     1     -33.735   9.351   0.766  1.00 20.00    -0.197 NA
ENDROOT
BRANCH   2   4
HETATM    4  C5  UNL     1     -32.868   6.351   2.316  1.00 20.00     0.034 C 
BRANCH   4   5
HETATM    5  C7  UNL     1     -33.325   6.997   3.637  1.00 20.00     0.086 C 
HETATM    6 CL9  UNL     1     -31.934   7.776   4.461  1.00 20.00    -0.125 Cl
BRANCH   5   7
HETATM    7  C6  UNL     1     -34.048   5.992   4.571  1.00 20.00    -0.004 C 
HETATM    8  C2  UNL     1     -34.501   6.655   5.878  1.00 20.00     0.011 C 
HETATM    9  C3  UNL     1     -35.231   5.268   3.920  1.00 20.00     0.011 C 
ENDBRANCH   5   7
ENDBRANCH   4   5
ENDBRANCH   2   4
TORSDOF 3
