REMARK  0 active torsions:
REMARK  status: ('A' for Active; 'I' for Inactive)
ROOT
HETATM    1  C1  UNL     1     -32.952   7.227   2.114  1.00 20.00     0.095 C 
HETATM    2  C2  UNL     1     -34.057   5.237   2.963  1.00 20.00     0.011 C 
HETATM    3  C3  UNL     1     -33.523   6.450   3.148  1.00 20.00     0.020 C 
HETATM    4  C4  UNL     1     -33.592   6.873   4.582  1.00 20.00     0.051 C 
HETATM    5  C5  UNL     1     -34.603   5.882   5.166  1.00 20.00     0.029 C 
HETATM    6  C6  UNL     1     -34.572   4.661   4.242  1.00 20.00     0.106 C 
HETATM    7  N7  UNL     1     -32.483   7.864   1.265  1.00 20.00    -0.192 NA
HETATM    8 CL8  UNL     1     -33.449   3.417   4.834  1.00 20.00    -0.121 Cl
ENDROOT
TORSDOF 0
