REMARK  1 active torsions:
REMARK  status: ('A' for Active; 'I' for Inactive)
REMARK    1  A    between atoms: C6_6  and  O11_11 
ROOT
HETATM    1  C1  UNL     1     -32.952   8.380   1.562  1.00 20.00     0.095 C 
HETATM    2  C2  UNL     1     -32.810   6.046   2.044  1.00 20.00     0.022 C 
HETATM    3  C3  UNL     1     -33.133   7.284   2.455  1.00 20.00     0.021 C 
HETATM    4  C4  UNL     1     -33.692   7.548   3.832  1.00 20.00     0.058 C 
HETATM    5  C5  UNL     1     -33.312   5.111   4.360  1.00 20.00     0.045 C 
HETATM    6  C6  UNL     1     -32.938   4.819   2.900  1.00 20.00     0.143 C 
HETATM    7  C7  UNL     1     -34.291   6.298   4.526  1.00 20.00    -0.041 C 
HETATM    8  C8  UNL     1     -34.474   6.592   6.027  1.00 20.00     0.015 C 
HETATM    9  C9  UNL     1     -35.677   5.968   3.937  1.00 20.00     0.015 C 
HETATM   10  N10 UNL     1     -32.806   9.273   0.835  1.00 20.00    -0.192 NA
ENDROOT
BRANCH   6  11
HETATM   11  O11 UNL     1     -33.917   3.950   2.332  1.00 20.00    -0.392 OA
HETATM   12  H24 UNL     1     -33.602   3.724   1.443  1.00 20.00     0.210 HD
ENDBRANCH   6  11
TORSDOF 1
