REMARK  2 active torsions:
REMARK  status: ('A' for Active; 'I' for Inactive)
REMARK    1  A    between atoms: C4_4  and  C5_5 
REMARK    2  A    between atoms: C4_4  and  C6_6 
ROOT
HETATM    1  C1  UNL     1     -32.293   7.266   1.771  1.00 20.00     0.063 C 
HETATM    2  C2  UNL     1     -32.521   4.856   2.182  1.00 20.00     0.025 C 
HETATM    3  C5  UNL     1     -33.163   6.233   2.367  1.00 20.00     0.090 C 
HETATM    4  N7  UNL     1     -31.612   8.079   1.301  1.00 20.00    -0.197 NA
ENDROOT
BRANCH   3   5
HETATM    5  C4  UNL     1     -33.406   6.504   3.865  1.00 20.00     0.038 C 
BRANCH   5   6
HETATM    6  C6  UNL     1     -34.251   5.443   4.592  1.00 20.00     0.079 C 
HETATM    7  C3  UNL     1     -35.657   5.371   4.007  1.00 20.00     0.026 C 
HETATM    8 CL8  UNL     1     -34.373   5.806   6.340  1.00 20.00    -0.125 Cl
ENDBRANCH   5   6
ENDBRANCH   3   5
TORSDOF 2
