REMARK  1 active torsions:
REMARK  status: ('A' for Active; 'I' for Inactive)
REMARK    1  A    between atoms: C4_4  and  C7_7 
ROOT
HETATM    1  C1  UNL     1     -33.042   7.056   1.302  1.00 20.00     0.034 A 
HETATM    2  C2  UNL     1     -33.350   6.109   2.320  1.00 20.00     0.026 A 
HETATM    3  C3  UNL     1     -33.161   8.354   1.749  1.00 20.00    -0.019 A 
HETATM    4  C4  UNL     1     -33.693   6.718   3.507  1.00 20.00     0.018 A 
HETATM    5  C5  UNL     1     -32.929   9.609   1.003  1.00 20.00     0.056 C 
HETATM    6  S8  UNL     1     -33.642   8.426   3.391  1.00 20.00    -0.097 SA
HETATM    7 BR10 UNL     1     -33.277   4.251   2.010  1.00 20.00    -0.050 Br
ENDROOT
BRANCH   4   8
HETATM    8  C7  UNL     1     -34.078   6.102   4.797  1.00 20.00     0.119 C 
HETATM    9  C6  UNL     1     -35.341   5.226   4.742  1.00 20.00     0.032 C 
HETATM   10 CL9  UNL     1     -34.305   7.366   6.057  1.00 20.00    -0.120 Cl
ENDBRANCH   4   8
TORSDOF 1
