REMARK  0 active torsions:
REMARK  status: ('A' for Active; 'I' for Inactive)
ROOT
HETATM    1  C1  UNL     1     -32.788   7.905   1.686  1.00 20.00     0.064 C 
HETATM    2  C2  UNL     1     -32.045   7.562   4.030  1.00 20.00     0.021 C 
HETATM    3  C3  UNL     1     -32.988   6.936   5.058  1.00 20.00     0.021 C 
HETATM    4  C4  UNL     1     -33.520   5.917   2.977  1.00 20.00     0.039 C 
HETATM    5  C5  UNL     1     -32.379   6.900   2.681  1.00 20.00     0.094 C 
HETATM    6  C6  UNL     1     -34.179   6.487   4.227  1.00 20.00     0.083 C 
HETATM    7  N7  UNL     1     -33.111   8.698   0.901  1.00 20.00    -0.197 NA
HETATM    8 CL8  UNL     1     -35.172   5.289   5.069  1.00 20.00    -0.125 Cl
ENDROOT
TORSDOF 0
