REMARK  0 active torsions:
REMARK  status: ('A' for Active; 'I' for Inactive)
ROOT
HETATM    1  C1  UNL     1     -32.857   8.175   1.175  1.00 20.00     0.064 C 
HETATM    2  C2  UNL     1     -32.275   7.906   3.573  1.00 20.00     0.020 C 
HETATM    3  C3  UNL     1     -33.110   6.923   4.396  1.00 20.00     0.017 C 
HETATM    4  C4  UNL     1     -32.846   5.940   2.244  1.00 20.00     0.035 C 
HETATM    5  C5  UNL     1     -32.175   7.315   2.156  1.00 20.00     0.094 C 
HETATM    6  C6  UNL     1     -33.862   6.108   3.362  1.00 20.00     0.059 C 
HETATM    7  N7  UNL     1     -33.395   8.853   0.401  1.00 20.00    -0.197 NA
HETATM    8 BR8  UNL     1     -34.430   4.403   4.070  1.00 20.00    -0.091 Br
ENDROOT
TORSDOF 0
