REMARK  0 active torsions:
REMARK  status: ('A' for Active; 'I' for Inactive)
ROOT
HETATM    1  C1  UNL     1     -32.708   7.499   1.693  1.00 20.00     0.064 C 
HETATM    2  C2  UNL     1     -32.620   5.155   2.532  1.00 20.00     0.021 C 
HETATM    3  C3  UNL     1     -33.825   4.686   3.343  1.00 20.00     0.021 C 
HETATM    4  C4  UNL     1     -33.444   6.941   3.998  1.00 20.00     0.039 C 
HETATM    5  C5  UNL     1     -32.451   6.648   2.863  1.00 20.00     0.094 C 
HETATM    6  C6  UNL     1     -33.766   5.570   4.578  1.00 20.00     0.083 C 
HETATM    7  N7  UNL     1     -32.911   8.171   0.769  1.00 20.00    -0.197 NA
HETATM    8 CL8  UNL     1     -35.284   5.560   5.485  1.00 20.00    -0.125 Cl
ENDROOT
TORSDOF 0
