REMARK  2 active torsions:
REMARK  status: ('A' for Active; 'I' for Inactive)
REMARK    1  A    between atoms: C4_4  and  C5_5 
REMARK    2  A    between atoms: C4_4  and  C6_6 
ROOT
HETATM    1  C1  UNL     1     -33.115   6.390   2.968  1.00 20.00     0.063 C 
HETATM    2  C2  UNL     1     -34.164   4.286   2.262  1.00 20.00     0.025 C 
HETATM    3  C5  UNL     1     -33.810   5.181   3.451  1.00 20.00     0.090 C 
HETATM    4  N7  UNL     1     -32.567   7.339   2.589  1.00 20.00    -0.197 NA
ENDROOT
BRANCH   3   5
HETATM    5  C4  UNL     1     -35.086   5.546   4.236  1.00 20.00     0.038 C 
BRANCH   5   6
HETATM    6  C6  UNL     1     -34.850   6.044   5.673  1.00 20.00     0.079 C 
HETATM    7  C3  UNL     1     -34.201   4.959   6.526  1.00 20.00     0.026 C 
HETATM    8 CL8  UNL     1     -33.799   7.492   5.688  1.00 20.00    -0.125 Cl
ENDBRANCH   5   6
ENDBRANCH   3   5
TORSDOF 2
