REMARK  2 active torsions:
REMARK  status: ('A' for Active; 'I' for Inactive)
REMARK    1  A    between atoms: C3_3  and  C4_4 
REMARK    2  A    between atoms: C4_4  and  C5_5 
ROOT
HETATM    1  C1  UNL     1     -33.193   6.123   2.467  1.00 20.00     0.059 C 
HETATM    2  C3  UNL     1     -33.868   4.860   2.792  1.00 20.00     0.125 C 
HETATM    3  N6  UNL     1     -32.658   7.120   2.209  1.00 20.00    -0.197 NA
ENDROOT
BRANCH   2   4
HETATM    4  C4  UNL     1     -34.834   5.005   3.973  1.00 20.00     0.034 C 
BRANCH   4   5
HETATM    5  C5  UNL     1     -34.198   5.511   5.278  1.00 20.00     0.079 C 
HETATM    6  C2  UNL     1     -35.096   5.212   6.474  1.00 20.00     0.026 C 
HETATM    7 CL7  UNL     1     -33.900   7.274   5.208  1.00 20.00    -0.125 Cl
ENDBRANCH   4   5
ENDBRANCH   2   4
TORSDOF 2
