REMARK  4 active torsions:
REMARK  status: ('A' for Active; 'I' for Inactive)
REMARK    1  A    between atoms: C6_6  and  C10_10 
REMARK    2  A    between atoms: C7_7  and  C11_11 
REMARK    3  A    between atoms: C9_9  and  C11_11 
REMARK    4  A    between atoms: C11_11  and  O12_12 
ROOT
HETATM    1  C1  UNL     1     -34.071   3.568   5.221  1.00 20.00     0.012 C 
HETATM    2  C2  UNL     1     -34.444   4.665   4.905  1.00 20.00    -0.115 C 
HETATM    3  C9  UNL     1     -34.905   6.008   4.517  1.00 20.00     0.125 C 
ENDROOT
BRANCH   3   4
HETATM    4  C11 UNL     1     -33.766   7.031   4.574  1.00 20.00     0.133 C 
BRANCH   4   5
HETATM    5  C7  UNL     1     -32.604   6.617   3.673  1.00 20.00     0.015 C 
HETATM    6  C4  UNL     1     -31.431   7.597   3.771  1.00 20.00     0.007 C 
HETATM    7  C3  UNL     1     -31.579   8.577   2.604  1.00 20.00     0.005 C 
HETATM    8  C6  UNL     1     -32.800   8.117   1.803  1.00 20.00    -0.014 C 
HETATM    9  C5  UNL     1     -32.971   6.649   2.190  1.00 20.00     0.012 C 
BRANCH   8  10
HETATM   10  C10 UNL     1     -32.646   8.322   0.305  1.00 20.00     0.000 C 
HETATM   11  C8  UNL     1     -32.460   9.765  -0.045  1.00 20.00     0.005 C 
ENDBRANCH   8  10
ENDBRANCH   4   5
BRANCH   4  12
HETATM   12  O12 UNL     1     -33.296   7.115   5.919  1.00 20.00    -0.394 OA
HETATM   13  H30 UNL     1     -32.968   6.233   6.150  1.00 20.00     0.210 HD
ENDBRANCH   4  12
ENDBRANCH   3   4
TORSDOF 4
