REMARK  5 active torsions:
REMARK  status: ('A' for Active; 'I' for Inactive)
REMARK    1  A    between atoms: C1_1  and  C5_5 
REMARK    2  A    between atoms: C1_1  and  C9_9 
REMARK    3  A    between atoms: C6_6  and  C10_10 
REMARK    4  A    between atoms: C9_9  and  C12_12 
REMARK    5  A    between atoms: C11_11  and  C12_12 
ROOT
HETATM    1  C2  UNL     1     -34.498   5.859   1.640  1.00 20.00     0.012 C 
HETATM    2  C3  UNL     1     -35.174   5.596   2.980  1.00 20.00     0.005 C 
HETATM    3  C4  UNL     1     -32.822   5.718   3.426  1.00 20.00     0.016 C 
HETATM    4  C5  UNL     1     -33.054   6.220   1.995  1.00 20.00     0.056 C 
HETATM    5  C6  UNL     1     -34.074   4.915   3.786  1.00 20.00    -0.014 C 
ENDROOT
BRANCH   4   6
HETATM    6  C1  UNL     1     -32.847   7.702   1.925  1.00 20.00     0.131 C 
HETATM    7  O13 UNL     1     -33.041   8.443   2.895  1.00 20.00    -0.298 OA
BRANCH   6   8
HETATM    8  C9  UNL     1     -32.379   8.256   0.587  1.00 20.00     0.079 C 
BRANCH   8   9
HETATM    9  C12 UNL     1     -32.834   9.694   0.349  1.00 20.00     0.007 C 
BRANCH   9  10
HETATM   10  C11 UNL     1     -34.358   9.798   0.323  1.00 20.00    -0.004 C 
HETATM   11  C8  UNL     1     -34.815  11.222   0.048  1.00 20.00     0.005 C 
ENDBRANCH   9  10
ENDBRANCH   8   9
ENDBRANCH   6   8
ENDBRANCH   4   6
BRANCH   5  12
HETATM   12  C10 UNL     1     -34.358   4.884   5.278  1.00 20.00     0.000 C 
HETATM   13  C7  UNL     1     -34.538   6.258   5.843  1.00 20.00     0.005 C 
ENDBRANCH   5  12
TORSDOF 5
