REMARK  3 active torsions:
REMARK  status: ('A' for Active; 'I' for Inactive)
REMARK    1  A    between atoms: C5_5  and  C7_7 
REMARK    2  A    between atoms: C6_6  and  C8_8 
REMARK    3  A    between atoms: C7_7  and  C8_8 
ROOT
HETATM    1  C1  UNL     1     -33.935   6.586   4.505  1.00 20.00     0.069 C 
HETATM    2  C4  UNL     1     -31.790   7.659   3.984  1.00 20.00     0.031 C 
HETATM    3  C8  UNL     1     -32.959   6.830   3.414  1.00 20.00     0.045 C 
HETATM    4  N9  UNL     1     -34.698   6.396   5.358  1.00 20.00    -0.196 NA
ENDROOT
BRANCH   3   5
HETATM    5  C6  UNL     1     -32.378   5.470   2.931  1.00 20.00     0.020 C 
HETATM    6  C3  UNL     1     -33.394   4.471   2.384  1.00 20.00     0.007 C 
ENDBRANCH   3   5
BRANCH   3   7
HETATM    7  C7  UNL     1     -33.652   7.574   2.240  1.00 20.00     0.024 C 
BRANCH   7   8
HETATM    8  C5  UNL     1     -32.764   7.853   1.019  1.00 20.00    -0.003 C 
HETATM    9  C2  UNL     1     -33.554   8.523  -0.097  1.00 20.00     0.005 C 
ENDBRANCH   7   8
ENDBRANCH   3   7
TORSDOF 3
