REMARK  2 active torsions:
REMARK  status: ('A' for Active; 'I' for Inactive)
REMARK    1  A    between atoms: C5_5  and  C9_9 
REMARK    2  A    between atoms: C6_6  and  C10_10 
ROOT
HETATM    1  C1  UNL     1     -34.218   6.710   5.127  1.00 20.00     0.069 C 
HETATM    2  C2  UNL     1     -32.259   7.068   1.986  1.00 20.00     0.006 C 
HETATM    3  C3  UNL     1     -32.420   6.568   3.424  1.00 20.00     0.025 C 
HETATM    4  C4  UNL     1     -34.420   7.747   2.885  1.00 20.00     0.029 C 
HETATM    5  C5  UNL     1     -33.599   7.703   1.593  1.00 20.00    -0.013 C 
HETATM    6  C6  UNL     1     -33.930   6.537   3.693  1.00 20.00     0.049 C 
HETATM    7  N11 UNL     1     -34.445   6.846   6.257  1.00 20.00    -0.196 NA
ENDROOT
BRANCH   6   8
HETATM    8  C10 UNL     1     -34.560   5.227   3.202  1.00 20.00     0.020 C 
HETATM    9  C8  UNL     1     -34.018   4.047   3.939  1.00 20.00     0.007 C 
ENDBRANCH   6   8
BRANCH   5  10
HETATM   10  C9  UNL     1     -33.444   9.073   0.949  1.00 20.00     0.000 C 
HETATM   11  C7  UNL     1     -32.635   9.011  -0.308  1.00 20.00     0.005 C 
ENDBRANCH   5  10
TORSDOF 2
