REMARK  5 active torsions:
REMARK  status: ('A' for Active; 'I' for Inactive)
REMARK    1  A    between atoms: C1_1  and  C6_6 
REMARK    2  A    between atoms: C1_1  and  C10_10 
REMARK    3  A    between atoms: C7_7  and  C11_11 
REMARK    4  A    between atoms: C10_10  and  C13_13 
REMARK    5  A    between atoms: C12_12  and  C13_13 
ROOT
HETATM    1  C2  UNL     1     -34.428   6.998   6.388  1.00 20.00     0.001 C 
HETATM    2  C3  UNL     1     -33.431   6.803   5.248  1.00 20.00     0.012 C 
HETATM    3  C4  UNL     1     -35.354   5.793   6.537  1.00 20.00     0.005 C 
HETATM    4  C5  UNL     1     -35.062   5.266   4.082  1.00 20.00     0.016 C 
HETATM    5  C6  UNL     1     -34.146   6.478   3.942  1.00 20.00     0.056 C 
HETATM    6  C7  UNL     1     -36.072   5.461   5.222  1.00 20.00    -0.014 C 
ENDROOT
BRANCH   5   7
HETATM    7  C1  UNL     1     -33.086   6.137   2.912  1.00 20.00     0.131 C 
HETATM    8  O14 UNL     1     -32.682   4.983   2.736  1.00 20.00    -0.298 OA
BRANCH   7   9
HETATM    9  C10 UNL     1     -32.540   7.300   2.095  1.00 20.00     0.079 C 
BRANCH   9  10
HETATM   10  C13 UNL     1     -33.353   7.569   0.831  1.00 20.00     0.007 C 
BRANCH  10  11
HETATM   11  C12 UNL     1     -32.799   8.766   0.058  1.00 20.00    -0.004 C 
HETATM   12  C9  UNL     1     -32.792  10.025   0.911  1.00 20.00     0.005 C 
ENDBRANCH  10  11
ENDBRANCH   9  10
ENDBRANCH   7   9
ENDBRANCH   5   7
BRANCH   6  13
HETATM   13  C11 UNL     1     -36.950   4.221   5.384  1.00 20.00     0.000 C 
HETATM   14  C8  UNL     1     -37.690   3.901   4.127  1.00 20.00     0.005 C 
ENDBRANCH   6  13
TORSDOF 5
