REMARK  2 active torsions:
REMARK  status: ('A' for Active; 'I' for Inactive)
REMARK    1  A    between atoms: C2_2  and  C3_3 
REMARK    2  A    between atoms: C3_3  and  C4_4 
ROOT
HETATM    1  C3  UNL     1     -33.991   5.706   4.254  1.00 20.00     0.402 C 
HETATM    2  F7  UNL     1     -33.139   4.727   4.665  1.00 20.00    -0.189 F 
HETATM    3  F8  UNL     1     -35.116   5.078   3.823  1.00 20.00    -0.189 F 
ENDROOT
BRANCH   1   4
HETATM    4  C2  UNL     1     -34.328   6.570   5.455  1.00 20.00     0.313 C 
HETATM    5  C1  UNL     1     -34.967   5.845   6.621  1.00 20.00     0.097 C 
HETATM    6  F5  UNL     1     -33.180   7.152   5.897  1.00 20.00    -0.200 F 
HETATM    7  F6  UNL     1     -35.145   7.584   5.068  1.00 20.00    -0.200 F 
ENDBRANCH   1   4
BRANCH   1   8
HETATM    8  C4  UNL     1     -33.355   6.420   3.087  1.00 20.00     0.460 C 
HETATM    9  F9  UNL     1     -32.188   7.003   3.429  1.00 20.00    -0.165 F 
HETATM   10  F10 UNL     1     -34.173   7.393   2.627  1.00 20.00    -0.165 F 
HETATM   11  F11 UNL     1     -33.113   5.573   2.065  1.00 20.00    -0.165 F 
ENDBRANCH   1   8
TORSDOF 2
