REMARK  5 active torsions:
REMARK  status: ('A' for Active; 'I' for Inactive)
REMARK    1  A    between atoms: C6_6  and  C8_8 
REMARK    2  A    between atoms: C7_7  and  C11_11 
REMARK    3  A    between atoms: C8_8  and  C10_10 
REMARK    4  A    between atoms: C9_9  and  C10_10 
REMARK    5  A    between atoms: C9_9  and  C11_11 
ROOT
HETATM    1  C1  UNL     1     -33.631   4.866   2.868  1.00 20.00     0.069 C 
HETATM    2  C5  UNL     1     -35.505   5.760   4.186  1.00 20.00     0.031 C 
HETATM    3  C11 UNL     1     -34.089   6.042   3.646  1.00 20.00     0.045 C 
HETATM    4  N12 UNL     1     -33.267   3.943   2.265  1.00 20.00    -0.196 NA
ENDROOT
BRANCH   3   5
HETATM    5  C7  UNL     1     -33.148   6.210   4.879  1.00 20.00     0.020 C 
HETATM    6  C3  UNL     1     -33.104   5.025   5.842  1.00 20.00     0.007 C 
ENDBRANCH   3   5
BRANCH   3   7
HETATM    7  C9  UNL     1     -34.057   7.331   2.773  1.00 20.00     0.028 C 
BRANCH   7   8
HETATM    8  C10 UNL     1     -32.930   7.502   1.717  1.00 20.00    -0.017 C 
HETATM    9  C4  UNL     1     -31.589   7.614   2.459  1.00 20.00     0.010 C 
BRANCH   8  10
HETATM   10  C8  UNL     1     -33.159   8.707   0.783  1.00 20.00     0.004 C 
BRANCH  10  11
HETATM   11  C6  UNL     1     -33.183  10.060   1.501  1.00 20.00    -0.004 C 
HETATM   12  C2  UNL     1     -33.385  11.205   0.518  1.00 20.00     0.005 C 
ENDBRANCH  10  11
ENDBRANCH   8  10
ENDBRANCH   7   8
ENDBRANCH   3   7
TORSDOF 5
