REMARK  4 active torsions:
REMARK  status: ('A' for Active; 'I' for Inactive)
REMARK    1  A    between atoms: C6_6  and  C10_10 
REMARK    2  A    between atoms: C7_7  and  C11_11 
REMARK    3  A    between atoms: C9_9  and  C11_11 
REMARK    4  A    between atoms: C11_11  and  O12_12 
ROOT
HETATM    1  C1  UNL     1     -32.864   8.630  -0.958  1.00 20.00     0.012 C 
HETATM    2  C2  UNL     1     -32.997   8.735   0.231  1.00 20.00    -0.115 C 
HETATM    3  C9  UNL     1     -33.162   8.866   1.688  1.00 20.00     0.125 C 
ENDROOT
BRANCH   3   4
HETATM    4  C11 UNL     1     -32.544   7.680   2.433  1.00 20.00     0.133 C 
BRANCH   4   5
HETATM    5  C7  UNL     1     -33.490   6.492   2.461  1.00 20.00     0.015 C 
HETATM    6  C4  UNL     1     -32.794   5.173   2.806  1.00 20.00     0.007 C 
HETATM    7  C3  UNL     1     -33.840   4.321   3.532  1.00 20.00     0.005 C 
HETATM    8  C6  UNL     1     -35.102   5.184   3.621  1.00 20.00    -0.014 C 
HETATM    9  C5  UNL     1     -34.576   6.614   3.526  1.00 20.00     0.012 C 
BRANCH   8  10
HETATM   10  C10 UNL     1     -35.916   4.929   4.878  1.00 20.00     0.000 C 
HETATM   11  C8  UNL     1     -35.123   5.189   6.121  1.00 20.00     0.005 C 
ENDBRANCH   8  10
ENDBRANCH   4   5
BRANCH   4  12
HETATM   12  O12 UNL     1     -32.270   8.079   3.777  1.00 20.00    -0.394 OA
HETATM   13  H30 UNL     1     -31.863   7.314   4.211  1.00 20.00     0.210 HD
ENDBRANCH   4  12
ENDBRANCH   3   4
TORSDOF 4
