REMARK  3 active torsions:
REMARK  status: ('A' for Active; 'I' for Inactive)
REMARK    1  A    between atoms: C3_3  and  C7_7 
REMARK    2  A    between atoms: C3_3  and  C10_10 
REMARK    3  A    between atoms: C8_8  and  C11_11 
ROOT
HETATM    1  C1  UNL     1     -32.326   8.139   0.241  1.00 20.00     0.012 C 
HETATM    2  C2  UNL     1     -32.821   8.087   1.333  1.00 20.00    -0.110 C 
HETATM    3  C10 UNL     1     -33.428   8.032   2.668  1.00 20.00     0.171 C 
ENDROOT
BRANCH   3   4
HETATM    4  C3  UNL     1     -33.418   6.635   3.254  1.00 20.00     0.142 C 
HETATM    5  O12 UNL     1     -32.927   5.666   2.675  1.00 20.00    -0.297 OA
BRANCH   4   6
HETATM    6  C7  UNL     1     -34.056   6.481   4.622  1.00 20.00     0.057 C 
HETATM    7  C4  UNL     1     -33.412   5.301   5.350  1.00 20.00     0.013 C 
HETATM    8  C5  UNL     1     -34.553   4.339   5.672  1.00 20.00     0.005 C 
HETATM    9  C8  UNL     1     -35.577   4.604   4.574  1.00 20.00    -0.014 C 
HETATM   10  C6  UNL     1     -35.529   6.126   4.437  1.00 20.00     0.016 C 
BRANCH   9  11
HETATM   11  C11 UNL     1     -36.962   4.076   4.907  1.00 20.00     0.000 C 
HETATM   12  C9  UNL     1     -36.968   2.590   5.081  1.00 20.00     0.005 C 
ENDBRANCH   9  11
ENDBRANCH   4   6
ENDBRANCH   3   4
TORSDOF 3
