REMARK  0 active torsions:
REMARK  status: ('A' for Active; 'I' for Inactive)
ROOT
HETATM    1  C1  UNL     1     -35.973   5.596   4.093  1.00 20.00     0.071 C 
HETATM    2  C2  UNL     1     -34.442   4.845   5.876  1.00 20.00     0.052 C 
HETATM    3  C3  UNL     1     -34.392   6.170   6.613  1.00 20.00     0.169 C 
HETATM    4  C4  UNL     1     -33.712   6.535   4.410  1.00 20.00     0.192 C 
HETATM    5  C5  UNL     1     -34.569   5.271   4.422  1.00 20.00     0.069 C 
HETATM    6  C6  UNL     1     -34.056   4.212   3.449  1.00 20.00     0.033 C 
HETATM    7  N7  UNL     1     -37.076   5.851   3.836  1.00 20.00    -0.196 NA
HETATM    8  O8  UNL     1     -33.815   7.128   5.716  1.00 20.00    -0.389 OA
ENDROOT
TORSDOF 0
