REMARK  3 active torsions:
REMARK  status: ('A' for Active; 'I' for Inactive)
REMARK    1  A    between atoms: C3_3  and  C7_7 
REMARK    2  A    between atoms: C3_3  and  C9_9 
REMARK    3  A    between atoms: C8_8  and  C9_9 
ROOT
HETATM    1  C1  UNL     1     -32.599   9.266  -0.058  1.00 20.00     0.012 C 
HETATM    2  C2  UNL     1     -32.509   8.305   0.655  1.00 20.00    -0.117 C 
HETATM    3  C8  UNL     1     -32.396   7.126   1.528  1.00 20.00     0.100 C 
ENDROOT
BRANCH   3   4
HETATM    4  C9  UNL     1     -33.752   6.696   2.083  1.00 20.00     0.091 C 
BRANCH   4   5
HETATM    5  C3  UNL     1     -33.682   5.490   3.009  1.00 20.00     0.134 C 
HETATM    6  O10 UNL     1     -32.818   4.621   2.911  1.00 20.00    -0.297 OA
BRANCH   5   7
HETATM    7  C7  UNL     1     -34.738   5.422   4.094  1.00 20.00     0.081 C 
HETATM    8  C4  UNL     1     -34.581   6.600   5.029  1.00 20.00     0.040 C 
HETATM    9  C5  UNL     1     -34.817   5.990   6.390  1.00 20.00     0.168 C 
HETATM   10  O11 UNL     1     -34.274   4.671   6.305  1.00 20.00    -0.390 OA
HETATM   11  C6  UNL     1     -34.502   4.202   4.968  1.00 20.00     0.179 C 
ENDBRANCH   5   7
ENDBRANCH   4   5
ENDBRANCH   3   4
TORSDOF 3
