REMARK  2 active torsions:
REMARK  status: ('A' for Active; 'I' for Inactive)
REMARK    1  A    between atoms: C9_9  and  C10_10 
REMARK    2  A    between atoms: C9_9  and  N11_11 
ROOT
HETATM    1  C1  UNL     1     -34.104   7.652   6.426  1.00 20.00     0.002 C 
HETATM    2  C2  UNL     1     -33.989   3.909   3.392  1.00 20.00     0.028 C 
HETATM    3  C3  UNL     1     -34.791   6.275   6.382  1.00 20.00     0.007 C 
HETATM    4  C4  UNL     1     -34.809   4.393   4.592  1.00 20.00     0.008 C 
HETATM    5  C5  UNL     1     -33.283   7.772   5.130  1.00 20.00     0.034 C 
HETATM    6  C6  UNL     1     -33.638   5.032   2.414  1.00 20.00     0.235 C 
HETATM    7  C7  UNL     1     -34.084   5.555   5.243  1.00 20.00     0.016 C 
HETATM    8  C8  UNL     1     -33.871   6.686   4.246  1.00 20.00     0.192 C 
HETATM    9  N11 UNL     1     -32.986   6.200   3.141  1.00 20.00    -0.065 N 
HETATM   10  H31 UNL     1     -32.113   5.850   3.559  1.00 20.00     0.280 HD
ENDROOT
BRANCH   9  11
HETATM   11  C9  UNL     1     -32.598   7.286   2.174  1.00 20.00     0.250 C 
BRANCH  11  12
HETATM   12  C10 UNL     1     -33.825   7.792   1.439  1.00 20.00     0.142 C 
HETATM   13 CL12 UNL     1     -33.414   9.102   0.305  1.00 20.00    -0.129 Cl
ENDBRANCH  11  12
ENDBRANCH   9  11
TORSDOF 2
