REMARK  3 active torsions:
REMARK  status: ('A' for Active; 'I' for Inactive)
REMARK    1  A    between atoms: C1_1  and  C5_5 
REMARK    2  A    between atoms: C1_1  and  C9_9 
REMARK    3  A    between atoms: C6_6  and  C10_10 
ROOT
HETATM    1  C2  UNL     1     -33.581   5.089   2.513  1.00 20.00     0.012 C 
HETATM    2  C3  UNL     1     -34.333   4.555   3.730  1.00 20.00     0.005 C 
HETATM    3  C4  UNL     1     -33.360   6.619   4.413  1.00 20.00     0.016 C 
HETATM    4  C5  UNL     1     -32.898   6.375   2.979  1.00 20.00     0.056 C 
HETATM    5  C6  UNL     1     -34.648   5.805   4.543  1.00 20.00    -0.014 C 
ENDROOT
BRANCH   4   6
HETATM    6  C1  UNL     1     -33.365   7.531   2.114  1.00 20.00     0.130 C 
HETATM    7  O11 UNL     1     -34.383   8.162   2.396  1.00 20.00    -0.298 OA
BRANCH   6   8
HETATM    8  C9  UNL     1     -32.508   7.849   0.903  1.00 20.00     0.074 C 
HETATM    9  C7  UNL     1     -33.063   8.998   0.079  1.00 20.00     0.013 C 
ENDBRANCH   6   8
ENDBRANCH   4   6
BRANCH   5  10
HETATM   10  C10 UNL     1     -35.022   5.503   5.984  1.00 20.00     0.000 C 
HETATM   11  C8  UNL     1     -33.938   4.757   6.699  1.00 20.00     0.005 C 
ENDBRANCH   5  10
TORSDOF 3
