REMARK  1 active torsions:
REMARK  status: ('A' for Active; 'I' for Inactive)
REMARK    1  A    between atoms: C6_6  and  C8_8 
ROOT
HETATM    1  C1  UNL     1     -32.953   7.015   2.382  1.00 20.00     0.069 C 
HETATM    2  C2  UNL     1     -34.839   5.932   3.543  1.00 20.00     0.051 C 
HETATM    3  C3  UNL     1     -32.996   7.038   4.846  1.00 20.00     0.051 C 
HETATM    4  C4  UNL     1     -35.357   5.393   4.873  1.00 20.00     0.169 C 
HETATM    5  C5  UNL     1     -33.620   6.435   6.100  1.00 20.00     0.169 C 
HETATM    6  C6  UNL     1     -33.324   6.223   3.577  1.00 20.00     0.052 C 
HETATM    7  N9  UNL     1     -32.663   7.635   1.445  1.00 20.00    -0.196 NA
HETATM    8  O10 UNL     1     -35.029   6.279   5.941  1.00 20.00    -0.391 OA
ENDROOT
BRANCH   6   9
HETATM    9  C8  UNL     1     -32.518   4.912   3.549  1.00 20.00     0.020 C 
HETATM   10  C7  UNL     1     -32.815   4.121   2.323  1.00 20.00     0.007 C 
ENDBRANCH   6   9
TORSDOF 1
