REMARK  4 active torsions:
REMARK  status: ('A' for Active; 'I' for Inactive)
REMARK    1  A    between atoms: C2_2  and  C8_8 
REMARK    2  A    between atoms: C6_6  and  C9_9 
REMARK    3  A    between atoms: C8_8  and  C9_9 
REMARK    4  A    between atoms: C9_9  and  O11_11 
ROOT
HETATM    1  C1  UNL     1     -32.885   8.631   1.311  1.00 20.00    -0.111 C 
HETATM    2  C2  UNL     1     -32.692   7.513   1.703  1.00 20.00    -0.104 C 
HETATM    3  C7  UNL     1     -33.121   9.993   0.834  1.00 20.00     0.112 C 
ENDROOT
BRANCH   2   4
HETATM    4  C8  UNL     1     -32.452   6.142   2.183  1.00 20.00     0.128 C 
BRANCH   4   5
HETATM    5  C9  UNL     1     -33.730   5.520   2.752  1.00 20.00     0.158 C 
BRANCH   5   6
HETATM    6  C6  UNL     1     -34.230   6.301   3.952  1.00 20.00     0.151 C 
HETATM    7  C4  UNL     1     -33.209   6.414   5.070  1.00 20.00     0.036 C 
HETATM    8  C3  UNL     1     -34.099   6.603   6.273  1.00 20.00     0.029 C 
HETATM    9  C5  UNL     1     -35.259   5.684   5.950  1.00 20.00     0.168 C 
HETATM   10  O10 UNL     1     -35.375   5.642   4.520  1.00 20.00    -0.383 OA
ENDBRANCH   5   6
BRANCH   5  11
HETATM   11  O11 UNL     1     -33.445   4.185   3.166  1.00 20.00    -0.392 OA
HETATM   12  H25 UNL     1     -34.277   3.819   3.504  1.00 20.00     0.210 HD
ENDBRANCH   5  11
ENDBRANCH   4   5
ENDBRANCH   2   4
TORSDOF 4
