REMARK  3 active torsions:
REMARK  status: ('A' for Active; 'I' for Inactive)
REMARK    1  A    between atoms: C1_1  and  C7_7 
REMARK    2  A    between atoms: C1_1  and  C8_8 
REMARK    3  A    between atoms: C9_9  and  C11_11 
ROOT
HETATM    1  C4  UNL     1     -31.844   7.234   3.532  1.00 20.00     0.013 C 
HETATM    2  C5  UNL     1     -31.485   7.869   2.191  1.00 20.00     0.005 C 
HETATM    3  C6  UNL     1     -33.864   7.815   2.275  1.00 20.00     0.016 C 
HETATM    4  C8  UNL     1     -33.370   7.272   3.614  1.00 20.00     0.056 C 
HETATM    5  C9  UNL     1     -32.698   7.583   1.313  1.00 20.00    -0.014 C 
ENDROOT
BRANCH   4   6
HETATM    6  C1  UNL     1     -33.896   5.860   3.791  1.00 20.00     0.135 C 
HETATM    7  O12 UNL     1     -33.638   4.969   2.983  1.00 20.00    -0.297 OA
BRANCH   6   8
HETATM    8  C7  UNL     1     -34.747   5.602   5.005  1.00 20.00     0.056 A 
HETATM    9  C2  UNL     1     -34.339   4.510   5.927  1.00 20.00     0.013 A 
HETATM   10  C3  UNL     1     -34.185   5.943   6.338  1.00 20.00     0.013 A 
ENDBRANCH   6   8
ENDBRANCH   4   6
BRANCH   5  11
HETATM   11  C11 UNL     1     -32.761   8.460   0.075  1.00 20.00     0.000 C 
HETATM   12  C10 UNL     1     -32.783   9.917   0.420  1.00 20.00     0.005 C 
ENDBRANCH   5  11
TORSDOF 3
