REMARK  3 active torsions:
REMARK  status: ('A' for Active; 'I' for Inactive)
REMARK    1  A    between atoms: C6_6  and  C9_9 
REMARK    2  A    between atoms: C9_9  and  C11_11 
REMARK    3  A    between atoms: C10_10  and  C11_11 
ROOT
HETATM    1  C1  UNL     1     -33.647   6.688   4.759  1.00 20.00     0.069 C 
HETATM    2  C2  UNL     1     -31.868   6.831   2.210  1.00 20.00     0.006 C 
HETATM    3  C3  UNL     1     -32.577   5.621   2.804  1.00 20.00     0.025 C 
HETATM    4  C4  UNL     1     -34.222   7.392   2.453  1.00 20.00     0.029 C 
HETATM    5  C5  UNL     1     -33.005   7.588   1.531  1.00 20.00    -0.017 C 
HETATM    6  C6  UNL     1     -33.880   6.201   3.380  1.00 20.00     0.049 C 
HETATM    7  C7  UNL     1     -32.676   9.049   1.275  1.00 20.00     0.010 C 
HETATM    8  N12 UNL     1     -33.465   7.069   5.839  1.00 20.00    -0.196 NA
ENDROOT
BRANCH   6   9
HETATM    9  C9  UNL     1     -34.996   5.156   3.404  1.00 20.00     0.024 C 
BRANCH   9  10
HETATM   10  C11 UNL     1     -36.284   5.736   3.979  1.00 20.00     0.001 C 
BRANCH  10  11
HETATM   11  C10 UNL     1     -37.387   4.680   4.030  1.00 20.00    -0.004 C 
HETATM   12  C8  UNL     1     -36.973   3.483   4.871  1.00 20.00     0.005 C 
ENDBRANCH  10  11
ENDBRANCH   9  10
ENDBRANCH   6   9
TORSDOF 3
