REMARK  3 active torsions:
REMARK  status: ('A' for Active; 'I' for Inactive)
REMARK    1  A    between atoms: C6_6  and  C11_11 
REMARK    2  A    between atoms: C7_7  and  C12_12 
REMARK    3  A    between atoms: C12_12  and  C13_13 
ROOT
HETATM    1  C1  UNL     1     -33.074   5.655   2.443  1.00 20.00     0.069 C 
HETATM    2  C2  UNL     1     -32.305   7.272   5.006  1.00 20.00     0.002 C 
HETATM    3  C3  UNL     1     -33.599   7.213   5.810  1.00 20.00     0.005 C 
HETATM    4  C4  UNL     1     -32.551   7.788   3.588  1.00 20.00     0.024 C 
HETATM    5  C5  UNL     1     -34.901   6.822   3.666  1.00 20.00     0.029 C 
HETATM    6  C6  UNL     1     -34.691   6.381   5.128  1.00 20.00    -0.013 C 
HETATM    7  C7  UNL     1     -33.616   6.980   2.820  1.00 20.00     0.050 C 
HETATM    8  N14 UNL     1     -32.649   4.617   2.148  1.00 20.00    -0.196 NA
ENDROOT
BRANCH   7   9
HETATM    9  C12 UNL     1     -33.964   7.722   1.514  1.00 20.00     0.028 C 
BRANCH   9  10
HETATM   10  C13 UNL     1     -32.755   8.418   0.882  1.00 20.00    -0.021 C 
HETATM   11  C9  UNL     1     -31.633   7.442   0.524  1.00 20.00     0.009 C 
HETATM   12  C10 UNL     1     -33.205   9.171  -0.372  1.00 20.00     0.009 C 
ENDBRANCH   9  10
ENDBRANCH   7   9
BRANCH   6  13
HETATM   13  C11 UNL     1     -34.431   4.879   5.270  1.00 20.00     0.000 C 
HETATM   14  C8  UNL     1     -35.543   4.071   4.690  1.00 20.00     0.005 C 
ENDBRANCH   6  13
TORSDOF 3
