REMARK  3 active torsions:
REMARK  status: ('A' for Active; 'I' for Inactive)
REMARK    1  A    between atoms: C5_5  and  C9_9 
REMARK    2  A    between atoms: C6_6  and  C10_10 
REMARK    3  A    between atoms: C10_10  and  C11_11 
ROOT
HETATM    1  C1  UNL     1     -33.370   4.896   3.112  1.00 20.00     0.069 C 
HETATM    2  C2  UNL     1     -32.092   7.747   3.382  1.00 20.00     0.006 C 
HETATM    3  C3  UNL     1     -32.973   6.989   4.381  1.00 20.00     0.025 C 
HETATM    4  C4  UNL     1     -34.196   7.106   2.335  1.00 20.00     0.029 C 
HETATM    5  C5  UNL     1     -32.803   7.666   2.024  1.00 20.00    -0.013 C 
HETATM    6  C6  UNL     1     -33.968   6.181   3.537  1.00 20.00     0.049 C 
HETATM    7  N12 UNL     1     -32.902   3.889   2.778  1.00 20.00    -0.196 NA
ENDROOT
BRANCH   6   8
HETATM    8  C10 UNL     1     -35.266   5.903   4.295  1.00 20.00     0.024 C 
BRANCH   8   9
HETATM    9  C11 UNL     1     -34.985   5.458   5.726  1.00 20.00    -0.003 C 
HETATM   10  C8  UNL     1     -34.175   4.172   5.753  1.00 20.00     0.005 C 
ENDBRANCH   8   9
ENDBRANCH   6   8
BRANCH   5  11
HETATM   11  C9  UNL     1     -32.853   9.000   1.295  1.00 20.00     0.000 C 
HETATM   12  C7  UNL     1     -33.556   8.890  -0.021  1.00 20.00     0.005 C 
ENDBRANCH   5  11
TORSDOF 3
