REMARK  3 active torsions:
REMARK  status: ('A' for Active; 'I' for Inactive)
REMARK    1  A    between atoms: C5_5  and  C9_9 
REMARK    2  A    between atoms: C6_6  and  C10_10 
REMARK    3  A    between atoms: C10_10  and  O11_11 
ROOT
HETATM    1  C1  UNL     1     -33.511   4.279   2.479  1.00 20.00     0.001 C 
HETATM    2  C2  UNL     1     -33.022   5.499   1.704  1.00 20.00     0.005 C 
HETATM    3  C3  UNL     1     -34.509   4.665   3.567  1.00 20.00     0.007 C 
HETATM    4  C4  UNL     1     -33.444   6.951   3.730  1.00 20.00     0.011 C 
HETATM    5  C5  UNL     1     -32.435   6.564   2.640  1.00 20.00    -0.014 C 
HETATM    6  C6  UNL     1     -33.932   5.723   4.514  1.00 20.00     0.014 C 
ENDROOT
BRANCH   6   7
HETATM    7  C10 UNL     1     -34.965   6.129   5.563  1.00 20.00     0.118 C 
HETATM    8  C8  UNL     1     -34.404   7.149   6.538  1.00 20.00     0.040 C 
BRANCH   7   9
HETATM    9  O11 UNL     1     -35.380   4.971   6.276  1.00 20.00    -0.396 OA
HETATM   10  H31 UNL     1     -36.033   5.265   6.931  1.00 20.00     0.210 HD
ENDBRANCH   7   9
ENDBRANCH   6   7
BRANCH   5  11
HETATM   11  C9  UNL     1     -31.999   7.796   1.848  1.00 20.00     0.000 C 
HETATM   12  C7  UNL     1     -33.151   8.437   1.147  1.00 20.00     0.005 C 
ENDBRANCH   5  11
TORSDOF 3
