REMARK  3 active torsions:
REMARK  status: ('A' for Active; 'I' for Inactive)
REMARK    1  A    between atoms: C1_1  and  C7_7 
REMARK    2  A    between atoms: C1_1  and  C9_9 
REMARK    3  A    between atoms: C8_8  and  C9_9 
ROOT
HETATM    1  C1  UNL     1     -33.378   6.447   2.744  1.00 20.00     0.155 C 
HETATM    2  O10 UNL     1     -33.498   5.390   2.126  1.00 20.00    -0.295 OA
ENDROOT
BRANCH   1   3
HETATM    3  C7  UNL     1     -34.099   6.672   4.031  1.00 20.00     0.190 C 
HETATM    4  C3  UNL     1     -33.160   6.816   5.214  1.00 20.00     0.042 C 
HETATM    5  C2  UNL     1     -33.910   6.100   6.309  1.00 20.00     0.029 C 
HETATM    6  C6  UNL     1     -34.572   4.974   5.549  1.00 20.00     0.168 C 
HETATM    7  O11 UNL     1     -34.894   5.501   4.255  1.00 20.00    -0.378 OA
ENDBRANCH   1   3
BRANCH   1   8
HETATM    8  C9  UNL     1     -32.504   7.589   2.259  1.00 20.00     0.085 C 
BRANCH   8   9
HETATM    9  C8  UNL     1     -33.248   8.547   1.346  1.00 20.00    -0.007 A 
HETATM   10  C4  UNL     1     -32.486   9.463   0.428  1.00 20.00     0.005 A 
HETATM   11  C5  UNL     1     -33.271   8.313  -0.139  1.00 20.00     0.005 A 
ENDBRANCH   8   9
ENDBRANCH   1   8
TORSDOF 3
