REMARK  3 active torsions:
REMARK  status: ('A' for Active; 'I' for Inactive)
REMARK    1  A    between atoms: C3_3  and  C7_7 
REMARK    2  A    between atoms: C3_3  and  C10_10 
REMARK    3  A    between atoms: C8_8  and  C11_11 
ROOT
HETATM    1  C1  UNL     1     -33.408   9.437   0.318  1.00 20.00     0.012 C 
HETATM    2  C2  UNL     1     -32.890   8.520   0.893  1.00 20.00    -0.110 C 
HETATM    3  C10 UNL     1     -32.252   7.397   1.590  1.00 20.00     0.171 C 
ENDROOT
BRANCH   3   4
HETATM    4  C3  UNL     1     -32.988   7.004   2.855  1.00 20.00     0.142 C 
HETATM    5  O12 UNL     1     -32.757   7.510   3.953  1.00 20.00    -0.297 OA
BRANCH   4   6
HETATM    6  C7  UNL     1     -34.050   5.933   2.702  1.00 20.00     0.057 C 
HETATM    7  C4  UNL     1     -33.427   4.559   2.932  1.00 20.00     0.013 C 
HETATM    8  C5  UNL     1     -34.406   3.829   3.842  1.00 20.00     0.005 C 
HETATM    9  C8  UNL     1     -34.988   4.925   4.730  1.00 20.00    -0.014 C 
HETATM   10  C6  UNL     1     -35.130   6.111   3.770  1.00 20.00     0.016 C 
BRANCH   9  11
HETATM   11  C11 UNL     1     -34.087   5.247   5.921  1.00 20.00     0.000 C 
HETATM   12  C9  UNL     1     -34.640   6.359   6.756  1.00 20.00     0.005 C 
ENDBRANCH   9  11
ENDBRANCH   4   6
ENDBRANCH   3   4
TORSDOF 3
