REMARK  2 active torsions:
REMARK  status: ('A' for Active; 'I' for Inactive)
REMARK    1  A    between atoms: C5_5  and  C8_8 
REMARK    2  A    between atoms: C8_8  and  C9_9 
ROOT
HETATM    1  C1  UNL     1     -34.082   5.607   5.082  1.00 20.00     0.068 C 
HETATM    2  C6  UNL     1     -35.231   6.263   3.006  1.00 20.00     0.031 C 
HETATM    3  C7  UNL     1     -33.343   4.630   2.961  1.00 20.00     0.031 C 
HETATM    4  C9  UNL     1     -33.879   5.904   3.644  1.00 20.00     0.046 C 
HETATM    5  N10 UNL     1     -34.243   5.371   6.206  1.00 20.00    -0.196 NA
ENDROOT
BRANCH   4   6
HETATM    6  C8  UNL     1     -32.829   7.033   3.455  1.00 20.00     0.062 C 
BRANCH   6   7
HETATM    7  C5  UNL     1     -32.809   7.715   2.105  1.00 20.00    -0.050 A 
HETATM    8  C2  UNL     1     -32.637   7.027   0.869  1.00 20.00     0.014 A 
HETATM    9  C3  UNL     1     -32.656   7.885  -0.209  1.00 20.00     0.050 A 
HETATM   10  S11 UNL     1     -32.881   9.513   0.271  1.00 20.00    -0.113 SA
HETATM   11  C4  UNL     1     -32.952   9.073   1.924  1.00 20.00     0.056 A 
ENDBRANCH   6   7
ENDBRANCH   4   6
TORSDOF 2
