REMARK  1 active torsions:
REMARK  status: ('A' for Active; 'I' for Inactive)
REMARK    1  A    between atoms: C5_5  and  C9_9 
ROOT
HETATM    1  C1  UNL     1     -35.934   5.751   4.318  1.00 20.00     0.069 C 
HETATM    2  C2  UNL     1     -32.475   7.111   4.186  1.00 20.00     0.006 C 
HETATM    3  C3  UNL     1     -33.798   6.864   4.914  1.00 20.00     0.024 C 
HETATM    4  C4  UNL     1     -34.039   5.937   2.732  1.00 20.00     0.029 C 
HETATM    5  C5  UNL     1     -32.580   6.392   2.834  1.00 20.00    -0.013 C 
HETATM    6  C6  UNL     1     -34.468   5.692   4.185  1.00 20.00     0.046 C 
HETATM    7  C7  UNL     1     -33.964   4.342   4.712  1.00 20.00     0.031 C 
HETATM    8  N10 UNL     1     -37.089   5.798   4.423  1.00 20.00    -0.196 NA
ENDROOT
BRANCH   5   9
HETATM    9  C9  UNL     1     -32.153   7.261   1.662  1.00 20.00     0.000 C 
HETATM   10  C8  UNL     1     -32.983   8.501   1.552  1.00 20.00     0.005 C 
ENDBRANCH   5   9
TORSDOF 1
