REMARK  3 active torsions:
REMARK  status: ('A' for Active; 'I' for Inactive)
REMARK    1  A    between atoms: C6_6  and  C10_10 
REMARK    2  A    between atoms: C7_7  and  C11_11 
REMARK    3  A    between atoms: C11_11  and  C12_12 
ROOT
HETATM    1  C1  UNL     1     -33.740   6.252   5.207  1.00 20.00     0.069 C 
HETATM    2  C2  UNL     1     -32.430   6.031   1.605  1.00 20.00     0.006 C 
HETATM    3  C3  UNL     1     -34.567   7.383   1.632  1.00 20.00     0.006 C 
HETATM    4  C4  UNL     1     -32.446   5.969   3.133  1.00 20.00     0.025 C 
HETATM    5  C5  UNL     1     -34.588   7.324   3.161  1.00 20.00     0.025 C 
HETATM    6  C6  UNL     1     -33.155   7.261   1.043  1.00 20.00    -0.015 C 
HETATM    7  C7  UNL     1     -33.862   6.088   3.738  1.00 20.00     0.049 C 
HETATM    8  N13 UNL     1     -33.644   6.380   6.356  1.00 20.00    -0.196 NA
ENDROOT
BRANCH   7   9
HETATM    9  C11 UNL     1     -34.676   4.808   3.473  1.00 20.00     0.024 C 
BRANCH   9  10
HETATM   10  C12 UNL     1     -33.962   3.587   4.033  1.00 20.00    -0.003 C 
HETATM   11  C9  UNL     1     -34.776   2.326   3.791  1.00 20.00     0.005 C 
ENDBRANCH   9  10
ENDBRANCH   7   9
BRANCH   6  12
HETATM   12  C10 UNL     1     -32.342   8.542   1.257  1.00 20.00     0.000 C 
HETATM   13  C8  UNL     1     -33.020   9.731   0.661  1.00 20.00     0.005 C 
ENDBRANCH   6  12
TORSDOF 3
