REMARK  1 active torsions:
REMARK  status: ('A' for Active; 'I' for Inactive)
REMARK    1  A    between atoms: C1_1  and  N10_10 
ROOT
HETATM    1  C2  UNL     1     -34.173   6.493   6.523  1.00 20.00     0.002 C 
HETATM    2  C3  UNL     1     -33.266   4.041   2.473  1.00 20.00     0.020 C 
HETATM    3  C4  UNL     1     -34.494   5.080   6.015  1.00 20.00     0.007 C 
HETATM    4  C5  UNL     1     -34.142   3.919   3.723  1.00 20.00     0.008 C 
HETATM    5  C6  UNL     1     -33.487   7.228   5.359  1.00 20.00     0.026 C 
HETATM    6  C7  UNL     1     -33.237   5.465   1.908  1.00 20.00     0.125 C 
HETATM    7  C8  UNL     1     -33.696   4.968   4.725  1.00 20.00     0.009 C 
HETATM    8  C9  UNL     1     -33.825   6.374   4.139  1.00 20.00     0.090 C 
HETATM    9  N10 UNL     1     -33.029   6.502   2.925  1.00 20.00    -0.354 N 
ENDROOT
BRANCH   9  10
HETATM   10  C1  UNL     1     -32.400   7.687   2.569  1.00 20.00     0.351 C 
HETATM   11  O11 UNL     1     -31.973   7.998   1.462  1.00 20.00    -0.284 OA
ENDBRANCH   9  10
TORSDOF 1
