REMARK  2 active torsions:
REMARK  status: ('A' for Active; 'I' for Inactive)
REMARK    1  A    between atoms: C3_3  and  C8_8 
REMARK    2  A    between atoms: C3_3  and  C9_9 
ROOT
HETATM    1  C1  UNL     1     -33.328   8.813   1.005  1.00 20.00     0.012 C 
HETATM    2  C2  UNL     1     -32.929   7.823   1.554  1.00 20.00    -0.110 C 
HETATM    3  C9  UNL     1     -32.432   6.615   2.222  1.00 20.00     0.171 C 
ENDROOT
BRANCH   3   4
HETATM    4  C3  UNL     1     -33.539   5.825   2.893  1.00 20.00     0.142 C 
HETATM    5  O10 UNL     1     -33.791   4.653   2.616  1.00 20.00    -0.297 OA
BRANCH   4   6
HETATM    6  C8  UNL     1     -34.341   6.566   3.949  1.00 20.00     0.060 C 
HETATM    7  C4  UNL     1     -35.427   5.647   4.496  1.00 20.00     0.038 C 
HETATM    8  C6  UNL     1     -34.884   4.628   5.493  1.00 20.00     0.168 C 
HETATM    9  O11 UNL     1     -34.132   5.273   6.519  1.00 20.00    -0.391 OA
HETATM   10  C7  UNL     1     -32.986   5.942   5.999  1.00 20.00     0.168 C 
HETATM   11  C5  UNL     1     -33.396   7.055   5.040  1.00 20.00     0.038 C 
ENDBRANCH   4   6
ENDBRANCH   3   4
TORSDOF 2
