REMARK  2 active torsions:
REMARK  status: ('A' for Active; 'I' for Inactive)
REMARK    1  A    between atoms: C1_1  and  C7_7 
REMARK    2  A    between atoms: C6_6  and  C10_10 
ROOT
HETATM    1  C2  UNL     1     -33.108   6.844   4.889  1.00 20.00     0.002 C 
HETATM    2  C3  UNL     1     -32.650   7.493   3.586  1.00 20.00     0.005 C 
HETATM    3  C4  UNL     1     -34.590   6.475   4.846  1.00 20.00     0.020 C 
HETATM    4  C5  UNL     1     -34.456   6.249   2.328  1.00 20.00     0.025 C 
HETATM    5  C6  UNL     1     -32.963   6.614   2.367  1.00 20.00    -0.014 C 
HETATM    6  C7  UNL     1     -34.938   5.606   3.633  1.00 20.00     0.045 C 
HETATM    7  C8  UNL     1     -34.465   4.162   3.790  1.00 20.00     0.027 C 
ENDROOT
BRANCH   6   8
HETATM    8  C1  UNL     1     -36.463   5.556   3.595  1.00 20.00     0.181 C 
HETATM    9  O11 UNL     1     -36.988   4.609   4.244  1.00 20.00    -0.647 OA
HETATM   10  O12 UNL     1     -37.007   6.473   2.918  1.00 20.00    -0.647 OA
ENDBRANCH   6   8
BRANCH   5  11
HETATM   11  C10 UNL     1     -32.548   7.319   1.076  1.00 20.00     0.000 C 
HETATM   12  C9  UNL     1     -33.298   8.595   0.879  1.00 20.00     0.005 C 
ENDBRANCH   5  11
TORSDOF 2
