REMARK  0 active torsions:
REMARK  status: ('A' for Active; 'I' for Inactive)
ROOT
HETATM    1  C1  UNL     1     -32.897   6.657   2.943  1.00 20.00     0.071 C 
HETATM    2  C2  UNL     1     -34.494   6.652   6.132  1.00 20.00     0.034 C 
HETATM    3  C3  UNL     1     -35.163   7.074   4.824  1.00 20.00     0.036 C 
HETATM    4  C4  UNL     1     -32.952   5.092   4.897  1.00 20.00     0.058 C 
HETATM    5  C5  UNL     1     -34.145   5.192   5.852  1.00 20.00     0.123 C 
HETATM    6  C6  UNL     1     -35.030   5.809   3.970  1.00 20.00     0.144 C 
HETATM    7  C7  UNL     1     -33.578   5.499   3.545  1.00 20.00     0.074 C 
HETATM    8  C8  UNL     1     -33.542   4.324   2.557  1.00 20.00     0.034 C 
HETATM    9  N9  UNL     1     -32.360   7.569   2.469  1.00 20.00    -0.196 NA
HETATM   10  O10 UNL     1     -35.237   4.797   4.991  1.00 20.00    -0.379 OA
ENDROOT
TORSDOF 0
