REMARK  2 active torsions:
REMARK  status: ('A' for Active; 'I' for Inactive)
REMARK    1  A    between atoms: C6_6  and  C10_10 
REMARK    2  A    between atoms: C7_7  and  C11_11 
ROOT
HETATM    1  C1  UNL     1     -33.421   7.339   5.694  1.00 20.00     0.069 C 
HETATM    2  C2  UNL     1     -32.077   5.819   2.438  1.00 20.00     0.002 C 
HETATM    3  C3  UNL     1     -32.038   7.118   1.640  1.00 20.00     0.005 C 
HETATM    4  C4  UNL     1     -32.253   6.080   3.933  1.00 20.00     0.024 C 
HETATM    5  C5  UNL     1     -33.444   8.252   3.409  1.00 20.00     0.029 C 
HETATM    6  C6  UNL     1     -33.272   7.988   1.903  1.00 20.00    -0.013 C 
HETATM    7  C7  UNL     1     -33.478   6.962   4.261  1.00 20.00     0.049 C 
HETATM    8  N12 UNL     1     -33.377   7.633   6.815  1.00 20.00    -0.196 NA
ENDROOT
BRANCH   7   9
HETATM    9  C11 UNL     1     -34.787   6.186   4.029  1.00 20.00     0.020 C 
HETATM   10  C9  UNL     1     -34.841   4.957   4.868  1.00 20.00     0.007 C 
ENDBRANCH   7   9
BRANCH   6  11
HETATM   11  C10 UNL     1     -33.171   9.307   1.137  1.00 20.00     0.000 C 
HETATM   12  C8  UNL     1     -33.034   9.080  -0.333  1.00 20.00     0.005 C 
ENDBRANCH   6  11
TORSDOF 2
