REMARK  1 active torsions:
REMARK  status: ('A' for Active; 'I' for Inactive)
REMARK    1  A    between atoms: C3_3  and  C4_4 
ROOT
HETATM    1  C1  UNL     1     -32.904   6.897   3.492  1.00 20.00     0.064 C 
HETATM    2  C4  UNL     1     -34.047   6.674   4.387  1.00 20.00     0.175 C 
HETATM    3  N5  UNL     1     -32.002   7.077   2.784  1.00 20.00    -0.197 NA
ENDROOT
BRANCH   2   4
HETATM    4  C3  UNL     1     -34.259   5.204   4.616  1.00 20.00     0.035 C 
HETATM    5  C2  UNL     1     -34.008   4.211   3.754  1.00 20.00     0.105 C 
HETATM    6 CL6  UNL     1     -33.336   4.406   2.190  1.00 20.00    -0.096 Cl
HETATM    7 CL7  UNL     1     -34.953   4.799   6.160  1.00 20.00    -0.087 Cl
ENDBRANCH   2   4
TORSDOF 1
