REMARK  1 active torsions:
REMARK  status: ('A' for Active; 'I' for Inactive)
REMARK    1  A    between atoms: C3_3  and  C8_8 
ROOT
HETATM    1  C1  UNL     1     -33.629   5.306   2.260  1.00 20.00     0.285 C 
HETATM    2  C2  UNL     1     -32.515   6.269   2.669  1.00 20.00     0.073 C 
HETATM    3  C3  UNL     1     -34.480   5.860   4.384  1.00 20.00     0.289 C 
HETATM    4  C4  UNL     1     -32.129   7.227   1.557  1.00 20.00     0.023 C 
HETATM    5  N9  UNL     1     -34.175   4.737   3.494  1.00 20.00     0.099 N 
HETATM    6  S10 UNL     1     -33.217   7.141   4.098  1.00 20.00    -0.127 SA
HETATM    7  H27 UNL     1     -35.017   4.198   3.300  1.00 20.00     0.317 HD
ENDROOT
BRANCH   3   8
HETATM    8  C8  UNL     1     -34.473   5.403   5.834  1.00 20.00    -0.011 C 
HETATM    9  C5  UNL     1     -35.559   4.332   6.054  1.00 20.00     0.017 C 
HETATM   10  C6  UNL     1     -34.754   6.598   6.764  1.00 20.00     0.017 C 
HETATM   11  C7  UNL     1     -33.100   4.804   6.191  1.00 20.00     0.017 C 
ENDBRANCH   3   8
TORSDOF 1
