REMARK  3 active torsions:
REMARK  status: ('A' for Active; 'I' for Inactive)
REMARK    1  A    between atoms: C1_1  and  C9_9 
REMARK    2  A    between atoms: C10_10  and  C11_11 
REMARK    3  A    between atoms: C11_11  and  N12_12 
ROOT
HETATM    1  C5  UNL     1     -34.249   4.350   3.530  1.00 20.00     0.039 C 
HETATM    2  C6  UNL     1     -34.265   5.765   5.628  1.00 20.00     0.039 C 
HETATM    3  C7  UNL     1     -34.127   5.616   2.692  1.00 20.00     0.235 C 
HETATM    4  C8  UNL     1     -34.143   7.017   4.767  1.00 20.00     0.235 C 
HETATM    5  C9  UNL     1     -34.915   4.597   4.885  1.00 20.00     0.050 C 
HETATM    6  N12 UNL     1     -33.415   6.681   3.489  1.00 20.00    -0.071 N 
HETATM    7  H33 UNL     1     -32.494   6.304   3.751  1.00 20.00     0.279 HD
ENDROOT
BRANCH   6   8
HETATM    8  C11 UNL     1     -33.150   7.909   2.662  1.00 20.00     0.239 C 
BRANCH   8   9
HETATM    9  C10 UNL     1     -32.257   7.539   1.488  1.00 20.00     0.011 C 
HETATM   10  C3  UNL     1     -31.529   8.716   0.791  1.00 20.00     0.006 C 
HETATM   11  C2  UNL     1     -32.677   8.749  -0.236  1.00 20.00     0.001 C 
HETATM   12  C4  UNL     1     -32.977   7.285   0.140  1.00 20.00     0.006 C 
ENDBRANCH   8   9
ENDBRANCH   6   8
BRANCH   5  13
HETATM   13  C1  UNL     1     -36.392   4.821   4.723  1.00 20.00     0.235 C 
HETATM   14  O13 UNL     1     -37.245   4.088   5.212  1.00 20.00    -0.306 OA
ENDBRANCH   5  13
TORSDOF 3
