REMARK  3 active torsions:
REMARK  status: ('A' for Active; 'I' for Inactive)
REMARK    1  A    between atoms: C1_1  and  C3_3 
REMARK    2  A    between atoms: C1_1  and  C8_8 
REMARK    3  A    between atoms: C8_8  and  C9_9 
ROOT
HETATM    1  C1  UNL     1     -34.171   5.262   3.498  1.00 20.00     0.131 C 
HETATM    2  O10 UNL     1     -33.743   4.232   2.978  1.00 20.00    -0.298 OA
ENDROOT
BRANCH   1   3
HETATM    3  C3  UNL     1     -34.906   5.219   4.812  1.00 20.00     0.059 A 
HETATM    4  C2  UNL     1     -34.226   4.583   5.974  1.00 20.00     0.017 A 
HETATM    5  C4  UNL     1     -34.442   6.069   5.944  1.00 20.00    -0.007 A 
HETATM    6  C5  UNL     1     -33.274   6.991   5.855  1.00 20.00     0.011 C 
ENDBRANCH   1   3
BRANCH   1   7
HETATM    7  C8  UNL     1     -34.036   6.632   2.851  1.00 20.00     0.082 C 
BRANCH   7   8
HETATM    8  C9  UNL     1     -32.752   6.805   2.026  1.00 20.00    -0.016 C 
HETATM    9  C6  UNL     1     -31.503   6.618   2.890  1.00 20.00     0.010 C 
HETATM   10  C7  UNL     1     -32.728   8.192   1.379  1.00 20.00     0.010 C 
ENDBRANCH   7   8
ENDBRANCH   1   7
TORSDOF 3
