REMARK  2 active torsions:
REMARK  status: ('A' for Active; 'I' for Inactive)
REMARK    1  A    between atoms: C3_3  and  C5_5 
REMARK    2  A    between atoms: C3_3  and  C8_8 
ROOT
HETATM    1  C1  UNL     1     -32.956   8.425   0.911  1.00 20.00     0.012 C 
HETATM    2  C2  UNL     1     -32.784   7.501   1.658  1.00 20.00    -0.110 C 
HETATM    3  C8  UNL     1     -32.568   6.367   2.565  1.00 20.00     0.171 C 
ENDROOT
BRANCH   3   4
HETATM    4  C3  UNL     1     -33.432   6.445   3.808  1.00 20.00     0.142 C 
HETATM    5  O9  UNL     1     -33.084   7.028   4.833  1.00 20.00    -0.297 OA
BRANCH   4   6
HETATM    6  C5  UNL     1     -34.735   5.775   3.728  1.00 20.00     0.060 A 
HETATM    7  C4  UNL     1     -34.825   4.294   3.997  1.00 20.00     0.017 A 
HETATM    8  C6  UNL     1     -35.424   5.267   4.972  1.00 20.00    -0.007 A 
HETATM    9  C7  UNL     1     -34.829   5.425   6.329  1.00 20.00     0.011 C 
ENDBRANCH   4   6
ENDBRANCH   3   4
TORSDOF 2
