REMARK  3 active torsions:
REMARK  status: ('A' for Active; 'I' for Inactive)
REMARK    1  A    between atoms: C3_3  and  C5_5 
REMARK    2  A    between atoms: C3_3  and  C9_9 
REMARK    3  A    between atoms: C8_8  and  C9_9 
ROOT
HETATM    1  C1  UNL     1     -34.514   5.679   5.993  1.00 20.00     0.012 C 
HETATM    2  C2  UNL     1     -34.649   5.399   4.833  1.00 20.00    -0.117 C 
HETATM    3  C8  UNL     1     -34.817   5.055   3.413  1.00 20.00     0.100 C 
ENDROOT
BRANCH   3   4
HETATM    4  C9  UNL     1     -33.499   5.133   2.648  1.00 20.00     0.090 C 
BRANCH   4   5
HETATM    5  C3  UNL     1     -32.847   6.507   2.684  1.00 20.00     0.132 C 
HETATM    6  O10 UNL     1     -32.484   7.049   3.727  1.00 20.00    -0.298 OA
BRANCH   5   7
HETATM    7  C5  UNL     1     -32.643   7.179   1.351  1.00 20.00     0.059 A 
HETATM    8  C4  UNL     1     -31.423   8.009   1.167  1.00 20.00     0.017 A 
HETATM    9  C6  UNL     1     -32.771   8.669   1.295  1.00 20.00    -0.007 A 
HETATM   10  C7  UNL     1     -33.414   9.297   0.108  1.00 20.00     0.011 C 
ENDBRANCH   5   7
ENDBRANCH   4   5
ENDBRANCH   3   4
TORSDOF 3
