REMARK  2 active torsions:
REMARK  status: ('A' for Active; 'I' for Inactive)
REMARK    1  A    between atoms: C3_3  and  C5_5 
REMARK    2  A    between atoms: C5_5  and  C7_7 
ROOT
HETATM    1  C1  UNL     1     -33.539   6.846   4.644  1.00 20.00     0.029 A 
HETATM    2  C2  UNL     1     -33.851   5.326   2.913  1.00 20.00     0.065 A 
HETATM    3  C3  UNL     1     -33.304   6.538   3.273  1.00 20.00     0.018 A 
HETATM    4  C4  UNL     1     -34.257   5.857   5.280  1.00 20.00    -0.021 A 
HETATM    5  C9  UNL     1     -34.697   5.803   6.691  1.00 20.00     0.056 C 
HETATM    6  S12 UNL     1     -34.645   4.565   4.226  1.00 20.00    -0.106 SA
ENDROOT
BRANCH   3   7
HETATM    7  C5  UNL     1     -32.572   7.383   2.326  1.00 20.00     0.164 C 
HETATM    8  O11 UNL     1     -31.657   8.140   2.632  1.00 20.00    -0.292 OA
BRANCH   7   9
HETATM    9  C7  UNL     1     -32.967   7.305   0.915  1.00 20.00     0.065 A 
HETATM   10  C6  UNL     1     -31.911   7.408  -0.156  1.00 20.00     0.018 A 
HETATM   11  C8  UNL     1     -32.905   8.521   0.022  1.00 20.00    -0.006 A 
HETATM   12  C10 UNL     1     -32.453   9.850   0.522  1.00 20.00     0.011 C 
ENDBRANCH   7   9
ENDBRANCH   3   7
TORSDOF 2
