REMARK  4 active torsions:
REMARK  status: ('A' for Active; 'I' for Inactive)
REMARK    1  A    between atoms: C5_5  and  C7_7 
REMARK    2  A    between atoms: C6_6  and  C7_7 
REMARK    3  A    between atoms: C6_6  and  C8_8 
REMARK    4  A    between atoms: C8_8  and  N9_9 
ROOT
HETATM    1  C1  UNL     1     -32.791   7.876   0.983  1.00 20.00     0.158 C 
HETATM    2  N9  UNL     1     -32.466   7.030   1.730  1.00 20.00    -0.271 NA
HETATM    3  S10 UNL     1     -33.200   9.026  -0.039  1.00 20.00    -0.055 SA
ENDROOT
BRANCH   2   4
HETATM    4  C8  UNL     1     -33.563   6.444   2.508  1.00 20.00     0.106 C 
HETATM    5  C4  UNL     1     -33.659   4.966   2.143  1.00 20.00     0.034 C 
BRANCH   4   6
HETATM    6  C6  UNL     1     -33.277   6.623   4.006  1.00 20.00     0.031 C 
BRANCH   6   7
HETATM    7  C7  UNL     1     -34.516   6.531   4.927  1.00 20.00    -0.017 C 
HETATM    8  C3  UNL     1     -34.277   7.221   6.275  1.00 20.00     0.010 C 
BRANCH   7   9
HETATM    9  C5  UNL     1     -34.926   5.065   5.183  1.00 20.00    -0.000 C 
HETATM   10  C2  UNL     1     -33.848   4.232   5.862  1.00 20.00     0.005 C 
ENDBRANCH   7   9
ENDBRANCH   6   7
ENDBRANCH   4   6
ENDBRANCH   2   4
TORSDOF 4
