REMARK  2 active torsions:
REMARK  status: ('A' for Active; 'I' for Inactive)
REMARK    1  A    between atoms: C2_2  and  C8_8 
REMARK    2  A    between atoms: C3_3  and  C5_5 
ROOT
HETATM    1  C1  UNL     1     -34.128   4.211   3.479  1.00 20.00     0.080 A 
HETATM    2  C2  UNL     1     -34.413   5.404   4.110  1.00 20.00     0.055 A 
HETATM    3  C3  UNL     1     -33.096   6.172   2.533  1.00 20.00     0.080 A 
HETATM    4  N9  UNL     1     -33.822   6.529   3.570  1.00 20.00    -0.248 NA
HETATM    5  S10 UNL     1     -33.080   4.499   2.152  1.00 20.00    -0.084 SA
ENDROOT
BRANCH   3   6
HETATM    6  C5  UNL     1     -32.318   7.180   1.720  1.00 20.00     0.049 A 
HETATM    7  C4  UNL     1     -31.961   6.885   0.280  1.00 20.00     0.016 A 
HETATM    8  C6  UNL     1     -32.997   7.924   0.589  1.00 20.00    -0.007 A 
HETATM    9  C7  UNL     1     -32.703   9.367   0.362  1.00 20.00     0.011 C 
ENDBRANCH   3   6
BRANCH   2  10
HETATM   10  C8  UNL     1     -35.281   5.567   5.293  1.00 20.00     0.174 C 
HETATM   11 CL11 UNL     1     -34.458   5.015   6.776  1.00 20.00    -0.124 Cl
ENDBRANCH   2  10
TORSDOF 2
