REMARK  2 active torsions:
REMARK  status: ('A' for Active; 'I' for Inactive)
REMARK    1  A    between atoms: C2_2  and  C9_9 
REMARK    2  A    between atoms: C9_9  and  N11_11 
ROOT
HETATM    1  C1  UNL     1     -32.594   8.299   0.923  1.00 20.00    -0.109 C 
HETATM    2  C2  UNL     1     -32.473   7.367   1.670  1.00 20.00    -0.077 C 
HETATM    3  C7  UNL     1     -32.740   9.434   0.012  1.00 20.00     0.112 C 
ENDROOT
BRANCH   2   4
HETATM    4  C9  UNL     1     -32.320   6.228   2.580  1.00 20.00     0.365 C 
BRANCH   4   5
HETATM    5  N11 UNL     1     -33.480   6.104   3.461  1.00 20.00     0.103 N 
HETATM    6  C4  UNL     1     -34.593   5.446   2.766  1.00 20.00     0.303 C 
HETATM    7  C3  UNL     1     -35.809   5.316   3.685  1.00 20.00     0.300 C 
HETATM    8  N10 UNL     1     -35.488   4.615   4.931  1.00 20.00     0.091 N 
HETATM    9  C6  UNL     1     -34.340   5.221   5.624  1.00 20.00     0.244 C 
HETATM   10  H27 UNL     1     -36.306   4.652   5.550  1.00 20.00     0.316 HD
HETATM   11  C5  UNL     1     -33.132   5.361   4.680  1.00 20.00     0.308 C 
HETATM   12  C8  UNL     1     -34.724   6.549   6.284  1.00 20.00     0.044 C 
ENDBRANCH   4   5
ENDBRANCH   2   4
TORSDOF 2
