REMARK  4 active torsions:
REMARK  status: ('A' for Active; 'I' for Inactive)
REMARK    1  A    between atoms: C2_2  and  C8_8 
REMARK    2  A    between atoms: C5_5  and  C9_9 
REMARK    3  A    between atoms: C8_8  and  C9_9 
REMARK    4  A    between atoms: C9_9  and  O10_10 
ROOT
HETATM    1  C1  UNL     1     -32.566   8.338   1.169  1.00 20.00    -0.111 C 
HETATM    2  C2  UNL     1     -32.508   7.321   1.807  1.00 20.00    -0.104 C 
HETATM    3  C6  UNL     1     -32.637   9.575   0.394  1.00 20.00     0.112 C 
ENDROOT
BRANCH   2   4
HETATM    4  C8  UNL     1     -32.435   6.076   2.587  1.00 20.00     0.126 C 
BRANCH   4   5
HETATM    5  C9  UNL     1     -33.830   5.531   2.899  1.00 20.00     0.133 C 
BRANCH   5   6
HETATM    6  C5  UNL     1     -34.436   6.231   4.108  1.00 20.00     0.019 A 
HETATM    7  C3  UNL     1     -35.525   5.561   4.905  1.00 20.00     0.012 A 
HETATM    8  C4  UNL     1     -34.150   5.724   5.498  1.00 20.00    -0.012 A 
HETATM    9  C7  UNL     1     -33.925   6.686   6.613  1.00 20.00     0.010 C 
ENDBRANCH   5   6
BRANCH   5  10
HETATM   10  O10 UNL     1     -33.725   4.137   3.188  1.00 20.00    -0.394 OA
HETATM   11  H24 UNL     1     -33.338   3.723   2.402  1.00 20.00     0.210 HD
ENDBRANCH   5  10
ENDBRANCH   4   5
ENDBRANCH   2   4
TORSDOF 4
