REMARK  3 active torsions:
REMARK  status: ('A' for Active; 'I' for Inactive)
REMARK    1  A    between atoms: C1_1  and  C3_3 
REMARK    2  A    between atoms: C1_1  and  C7_7 
REMARK    3  A    between atoms: C7_7  and  C8_8 
ROOT
HETATM    1  C1  UNL     1     -34.352   5.002   3.588  1.00 20.00     0.131 C 
HETATM    2  O9  UNL     1     -33.850   3.916   3.304  1.00 20.00    -0.298 OA
ENDROOT
BRANCH   1   3
HETATM    3  C3  UNL     1     -35.144   5.183   4.857  1.00 20.00     0.059 A 
HETATM    4  C2  UNL     1     -34.503   4.796   6.144  1.00 20.00     0.017 A 
HETATM    5  C4  UNL     1     -34.751   6.244   5.827  1.00 20.00    -0.007 A 
HETATM    6  C5  UNL     1     -33.601   7.168   5.612  1.00 20.00     0.011 C 
ENDBRANCH   1   3
BRANCH   1   7
HETATM    7  C7  UNL     1     -34.219   6.228   2.703  1.00 20.00     0.078 C 
BRANCH   7   8
HETATM    8  C8  UNL     1     -32.765   6.624   2.465  1.00 20.00     0.003 C 
HETATM    9  C6  UNL     1     -32.659   7.833   1.550  1.00 20.00     0.005 C 
ENDBRANCH   7   8
ENDBRANCH   1   7
TORSDOF 3
