REMARK  3 active torsions:
REMARK  status: ('A' for Active; 'I' for Inactive)
REMARK    1  A    between atoms: C3_3  and  C5_5 
REMARK    2  A    between atoms: C3_3  and  C9_9 
REMARK    3  A    between atoms: C8_8  and  C9_9 
ROOT
HETATM    1  C1  UNL     1     -32.985   9.732   0.095  1.00 20.00     0.012 C 
HETATM    2  C2  UNL     1     -32.837   8.687   0.668  1.00 20.00    -0.117 C 
HETATM    3  C8  UNL     1     -32.652   7.406   1.367  1.00 20.00     0.100 C 
ENDROOT
BRANCH   3   4
HETATM    4  C9  UNL     1     -33.875   7.030   2.200  1.00 20.00     0.090 C 
BRANCH   4   5
HETATM    5  C3  UNL     1     -33.722   5.719   2.957  1.00 20.00     0.132 C 
HETATM    6  O10 UNL     1     -32.698   5.040   2.921  1.00 20.00    -0.298 OA
BRANCH   5   7
HETATM    7  C5  UNL     1     -34.905   5.295   3.790  1.00 20.00     0.059 A 
HETATM    8  C4  UNL     1     -34.661   4.372   4.932  1.00 20.00     0.017 A 
HETATM    9  C6  UNL     1     -35.045   5.802   5.183  1.00 20.00    -0.007 A 
HETATM   10  C7  UNL     1     -34.071   6.734   5.820  1.00 20.00     0.011 C 
ENDBRANCH   5   7
ENDBRANCH   4   5
ENDBRANCH   3   4
TORSDOF 3
