REMARK  3 active torsions:
REMARK  status: ('A' for Active; 'I' for Inactive)
REMARK    1  A    between atoms: C1_1  and  C3_3 
REMARK    2  A    between atoms: C1_1  and  C8_8 
REMARK    3  A    between atoms: C8_8  and  C9_9 
ROOT
HETATM    1  C1  UNL     1     -33.234   7.205   3.280  1.00 20.00     0.131 C 
HETATM    2  O10 UNL     1     -32.073   7.262   3.683  1.00 20.00    -0.298 OA
ENDROOT
BRANCH   1   3
HETATM    3  C3  UNL     1     -34.370   6.920   4.228  1.00 20.00     0.059 A 
HETATM    4  C2  UNL     1     -34.055   6.237   5.512  1.00 20.00     0.017 A 
HETATM    5  C4  UNL     1     -34.820   5.515   4.439  1.00 20.00    -0.007 A 
HETATM    6  C5  UNL     1     -34.209   4.344   3.748  1.00 20.00     0.011 C 
ENDBRANCH   1   3
BRANCH   1   7
HETATM    7  C8  UNL     1     -33.610   7.369   1.815  1.00 20.00     0.082 C 
BRANCH   7   8
HETATM    8  C9  UNL     1     -32.703   8.342   1.047  1.00 20.00    -0.016 C 
HETATM    9  C6  UNL     1     -32.744   9.745   1.657  1.00 20.00     0.010 C 
HETATM   10  C7  UNL     1     -33.127   8.405  -0.422  1.00 20.00     0.010 C 
ENDBRANCH   7   8
ENDBRANCH   1   7
TORSDOF 3
