REMARK  2 active torsions:
REMARK  status: ('A' for Active; 'I' for Inactive)
REMARK    1  A    between atoms: C2_2  and  C8_8 
REMARK    2  A    between atoms: C3_3  and  C5_5 
ROOT
HETATM    1  C1  UNL     1     -34.064   5.836   3.923  1.00 20.00     0.080 A 
HETATM    2  C2  UNL     1     -33.232   6.845   4.362  1.00 20.00     0.055 A 
HETATM    3  C3  UNL     1     -32.606   6.792   2.260  1.00 20.00     0.080 A 
HETATM    4  N9  UNL     1     -32.395   7.394   3.410  1.00 20.00    -0.248 NA
HETATM    5  S10 UNL     1     -33.797   5.557   2.252  1.00 20.00    -0.084 SA
ENDROOT
BRANCH   3   6
HETATM    6  C5  UNL     1     -31.827   7.175   0.990  1.00 20.00     0.049 A 
HETATM    7  C4  UNL     1     -31.227   8.561   0.902  1.00 20.00     0.016 A 
HETATM    8  C6  UNL     1     -32.386   8.200   0.022  1.00 20.00    -0.007 A 
HETATM    9  C7  UNL     1     -33.711   8.854   0.224  1.00 20.00     0.011 C 
ENDBRANCH   3   6
BRANCH   2  10
HETATM   10  C8  UNL     1     -33.168   7.371   5.740  1.00 20.00     0.174 C 
HETATM   11 CL11 UNL     1     -34.582   6.851   6.693  1.00 20.00    -0.124 Cl
ENDBRANCH   2  10
TORSDOF 2
