REMARK  2 active torsions:
REMARK  status: ('A' for Active; 'I' for Inactive)
REMARK    1  A    between atoms: C1_1  and  C3_3 
REMARK    2  A    between atoms: C1_1  and  C9_9 
ROOT
HETATM    1  C1  UNL     1     -33.860   5.971   3.277  1.00 20.00     0.139 C 
HETATM    2  O10 UNL     1     -33.787   5.353   2.212  1.00 20.00    -0.297 OA
ENDROOT
BRANCH   1   3
HETATM    3  C3  UNL     1     -32.917   7.121   3.539  1.00 20.00     0.060 A 
HETATM    4  C2  UNL     1     -31.516   7.000   3.054  1.00 20.00     0.017 A 
HETATM    5  C4  UNL     1     -32.462   7.970   2.405  1.00 20.00    -0.007 A 
HETATM    6  C5  UNL     1     -32.894   7.761   0.994  1.00 20.00     0.011 C 
ENDBRANCH   1   3
BRANCH   1   7
HETATM    7  C9  UNL     1     -34.907   5.620   4.351  1.00 20.00     0.010 C 
HETATM    8  C6  UNL     1     -34.749   6.585   5.532  1.00 20.00     0.022 C 
HETATM    9  C7  UNL     1     -34.736   4.171   4.825  1.00 20.00     0.022 C 
HETATM   10  C8  UNL     1     -36.319   5.778   3.760  1.00 20.00     0.022 C 
ENDBRANCH   1   7
TORSDOF 2
