REMARK  2 active torsions:
REMARK  status: ('A' for Active; 'I' for Inactive)
REMARK    1  A    between atoms: C2_2  and  C9_9 
REMARK    2  A    between atoms: C9_9  and  N11_11 
ROOT
HETATM    1  C3  UNL     1     -33.633   4.618   2.462  1.00 20.00     0.300 C 
HETATM    2  C4  UNL     1     -32.736   5.857   2.310  1.00 20.00     0.303 C 
HETATM    3  C5  UNL     1     -33.810   6.971   4.177  1.00 20.00     0.308 C 
HETATM    4  C6  UNL     1     -34.120   5.532   4.642  1.00 20.00     0.244 C 
HETATM    5  C7  UNL     1     -35.121   5.531   5.795  1.00 20.00     0.044 C 
HETATM    6  N10 UNL     1     -34.630   4.733   3.530  1.00 20.00     0.091 N 
HETATM    7  N11 UNL     1     -33.439   7.059   2.756  1.00 20.00     0.100 N 
HETATM    8  H29 UNL     1     -35.467   5.182   3.148  1.00 20.00     0.316 HD
ENDROOT
BRANCH   7   9
HETATM    9  C9  UNL     1     -32.674   8.270   2.481  1.00 20.00     0.241 C 
HETATM   10  C8  UNL     1     -31.200   8.066   2.811  1.00 20.00     0.047 C 
BRANCH   9  11
HETATM   11  C2  UNL     1     -32.867   8.624   1.035  1.00 20.00    -0.002 C 
HETATM   12  C1  UNL     1     -33.460   9.748   0.615  1.00 20.00     0.009 C 
ENDBRANCH   9  11
ENDBRANCH   7   9
TORSDOF 2
