REMARK  2 active torsions:
REMARK  status: ('A' for Active; 'I' for Inactive)
REMARK    1  A    between atoms: C2_2  and  C9_9 
REMARK    2  A    between atoms: C9_9  and  N11_11 
ROOT
HETATM    1  C3  UNL     1     -34.362   4.422   2.919  1.00 20.00     0.300 C 
HETATM    2  C4  UNL     1     -33.274   5.394   2.460  1.00 20.00     0.302 C 
HETATM    3  C5  UNL     1     -33.630   6.722   4.443  1.00 20.00     0.307 C 
HETATM    4  C6  UNL     1     -34.729   5.748   4.900  1.00 20.00     0.244 C 
HETATM    5  C8  UNL     1     -34.794   5.686   6.425  1.00 20.00     0.044 C 
HETATM    6  N10 UNL     1     -34.476   4.401   4.376  1.00 20.00     0.091 N 
HETATM    7  N11 UNL     1     -33.529   6.744   2.977  1.00 20.00     0.096 N 
HETATM    8  H29 UNL     1     -35.232   3.775   4.651  1.00 20.00     0.316 HD
ENDROOT
BRANCH   7   9
HETATM    9  C9  UNL     1     -32.487   7.672   2.542  1.00 20.00     0.305 C 
BRANCH   9  10
HETATM   10  C2  UNL     1     -32.754   8.109   1.130  1.00 20.00    -0.065 C 
HETATM   11  C1  UNL     1     -31.876   7.866   0.144  1.00 20.00     0.015 C 
HETATM   12  C7  UNL     1     -34.026   8.866   0.877  1.00 20.00     0.044 C 
ENDBRANCH   9  10
ENDBRANCH   7   9
TORSDOF 2
