REMARK  5 active torsions:
REMARK  status: ('A' for Active; 'I' for Inactive)
REMARK    1  A    between atoms: C3_3  and  C5_5 
REMARK    2  A    between atoms: C5_5  and  C6_6 
REMARK    3  A    between atoms: C6_6  and  N9_9 
REMARK    4  A    between atoms: C7_7  and  C8_8 
REMARK    5  A    between atoms: C7_7  and  N9_9 
ROOT
HETATM    1  C6  UNL     1     -32.631   6.713   2.745  1.00 20.00     0.272 C 
ENDROOT
BRANCH   1   2
HETATM    2  C5  UNL     1     -33.355   7.162   1.481  1.00 20.00     0.034 C 
BRANCH   2   3
HETATM    3  C3  UNL     1     -32.521   8.111   0.631  1.00 20.00    -0.013 A 
HETATM    4  C1  UNL     1     -33.183   8.994  -0.389  1.00 20.00     0.005 A 
HETATM    5  C2  UNL     1     -32.598   9.595   0.858  1.00 20.00     0.005 A 
ENDBRANCH   2   3
ENDBRANCH   1   2
BRANCH   1   6
HETATM    6  N9  UNL     1     -33.417   5.802   3.530  1.00 20.00     0.085 N 
HETATM    7  C4  UNL     1     -33.730   4.577   2.778  1.00 20.00     0.309 C 
BRANCH   6   8
HETATM    8  C7  UNL     1     -34.667   6.428   3.990  1.00 20.00     0.286 C 
BRANCH   8   9
HETATM    9  C8  UNL     1     -35.271   5.715   5.188  1.00 20.00     0.144 C 
HETATM   10 CL10 UNL     1     -34.155   5.720   6.576  1.00 20.00    -0.129 Cl
ENDBRANCH   8   9
ENDBRANCH   6   8
ENDBRANCH   1   6
TORSDOF 5
