REMARK  1 active torsions:
REMARK  status: ('A' for Active; 'I' for Inactive)
REMARK    1  A    between atoms: C3_3  and  C5_5 
ROOT
HETATM    1  C1  UNL     1     -32.611   8.857   0.437  1.00 20.00     0.021 C 
HETATM    2  C2  UNL     1     -32.640   8.033   1.310  1.00 20.00    -0.039 C 
HETATM    3  C3  UNL     1     -32.674   7.043   2.360  1.00 20.00     0.206 C 
HETATM    4  O8  UNL     1     -32.243   7.320   3.472  1.00 20.00    -0.283 OA
ENDROOT
BRANCH   3   5
HETATM    5  C5  UNL     1     -33.243   5.738   2.005  1.00 20.00     0.073 A 
HETATM    6  C4  UNL     1     -32.650   4.486   2.599  1.00 20.00     0.018 A 
HETATM    7  C6  UNL     1     -34.023   4.930   3.014  1.00 20.00    -0.006 A 
HETATM    8  C7  UNL     1     -34.263   5.415   4.403  1.00 20.00     0.011 C 
ENDBRANCH   3   5
TORSDOF 1
