REMARK  3 active torsions:
REMARK  status: ('A' for Active; 'I' for Inactive)
REMARK    1  A    between atoms: C7_7  and  C9_9 
REMARK    2  A    between atoms: C9_9  and  C10_10 
REMARK    3  A    between atoms: C10_10  and  N11_11 
ROOT
HETATM    1  C1  UNL     1     -34.027   4.025   3.569  1.00 20.00     0.029 C 
HETATM    2  C4  UNL     1     -34.453   4.800   4.813  1.00 20.00     0.023 C 
HETATM    3  C5  UNL     1     -33.743   4.952   2.396  1.00 20.00     0.235 C 
HETATM    4  C6  UNL     1     -33.147   6.799   3.990  1.00 20.00     0.254 C 
HETATM    5  C8  UNL     1     -33.424   5.872   5.166  1.00 20.00     0.108 C 
HETATM    6  N11 UNL     1     -32.708   5.975   2.801  1.00 20.00    -0.070 N 
HETATM    7 CL12 UNL     1     -34.003   6.830   6.559  1.00 20.00    -0.123 Cl
HETATM    8  H31 UNL     1     -31.863   5.458   3.083  1.00 20.00     0.279 HD
ENDROOT
BRANCH   6   9
HETATM    9  C10 UNL     1     -32.304   6.844   1.642  1.00 20.00     0.235 C 
BRANCH   9  10
HETATM   10  C9  UNL     1     -33.523   7.601   1.139  1.00 20.00     0.032 C 
BRANCH  10  11
HETATM   11  C7  UNL     1     -33.177   8.462  -0.065  1.00 20.00    -0.013 A 
HETATM   12  C2  UNL     1     -34.068   9.608  -0.457  1.00 20.00     0.005 A 
HETATM   13  C3  UNL     1     -32.709   9.878   0.126  1.00 20.00     0.005 A 
ENDBRANCH  10  11
ENDBRANCH   9  10
ENDBRANCH   6   9
TORSDOF 3
