REMARK  2 active torsions:
REMARK  status: ('A' for Active; 'I' for Inactive)
REMARK    1  A    between atoms: C3_3  and  C7_7 
REMARK    2  A    between atoms: C7_7  and  C8_8 
ROOT
HETATM    1  C1  UNL     1     -32.881   8.727   1.140  1.00 20.00     0.021 C 
HETATM    2  C2  UNL     1     -32.953   7.747   1.830  1.00 20.00    -0.040 C 
HETATM    3  C3  UNL     1     -33.040   6.566   2.659  1.00 20.00     0.202 C 
HETATM    4  O9  UNL     1     -33.308   5.488   2.144  1.00 20.00    -0.283 OA
ENDROOT
BRANCH   3   5
HETATM    5  C7  UNL     1     -32.786   6.752   4.140  1.00 20.00     0.101 C 
BRANCH   5   6
HETATM    6  C8  UNL     1     -33.997   6.446   5.051  1.00 20.00    -0.044 C 
HETATM    7  C4  UNL     1     -33.672   6.732   6.527  1.00 20.00     0.015 C 
HETATM    8  C5  UNL     1     -34.336   4.949   4.909  1.00 20.00     0.015 C 
HETATM    9  C6  UNL     1     -35.229   7.266   4.633  1.00 20.00     0.015 C 
ENDBRANCH   5   6
ENDBRANCH   3   5
TORSDOF 2
