REMARK  1 active torsions:
REMARK  status: ('A' for Active; 'I' for Inactive)
REMARK    1  A    between atoms: C3_3  and  C5_5 
ROOT
HETATM    1  C1  UNL     1     -34.655   5.494   6.226  1.00 20.00     0.021 C 
HETATM    2  C2  UNL     1     -34.335   5.571   5.072  1.00 20.00    -0.039 C 
HETATM    3  C3  UNL     1     -33.950   5.663   3.684  1.00 20.00     0.206 C 
HETATM    4  O8  UNL     1     -34.057   4.685   2.956  1.00 20.00    -0.283 OA
ENDROOT
BRANCH   3   5
HETATM    5  C5  UNL     1     -33.443   6.965   3.234  1.00 20.00     0.073 A 
HETATM    6  C4  UNL     1     -31.988   7.302   3.442  1.00 20.00     0.018 A 
HETATM    7  C6  UNL     1     -32.501   7.021   2.058  1.00 20.00    -0.006 A 
HETATM    8  C7  UNL     1     -32.612   8.124   1.062  1.00 20.00     0.011 C 
ENDBRANCH   3   5
TORSDOF 1
