REMARK  2 active torsions:
REMARK  status: ('A' for Active; 'I' for Inactive)
REMARK    1  A    between atoms: C5_5  and  C8_8 
REMARK    2  A    between atoms: C8_8  and  N9_9 
ROOT
HETATM    1  C1  UNL     1     -32.919   7.761   1.173  1.00 20.00     0.014 C 
HETATM    2  C2  UNL     1     -33.296   7.067   2.078  1.00 20.00    -0.081 C 
HETATM    3  C8  UNL     1     -33.735   6.197   3.193  1.00 20.00     0.301 C 
ENDROOT
BRANCH   3   4
HETATM    4  C5  UNL     1     -34.168   6.980   4.384  1.00 20.00     0.035 A 
HETATM    5  C3  UNL     1     -33.266   7.098   5.585  1.00 20.00     0.012 A 
HETATM    6  C4  UNL     1     -34.555   6.324   5.690  1.00 20.00    -0.011 A 
HETATM    7  C6  UNL     1     -34.531   4.847   5.880  1.00 20.00     0.010 C 
ENDBRANCH   3   4
BRANCH   3   8
HETATM    8  N9  UNL     1     -32.658   5.276   3.516  1.00 20.00     0.095 N 
HETATM    9  C7  UNL     1     -32.632   4.153   2.588  1.00 20.00     0.308 C 
HETATM   10  H22 UNL     1     -31.765   5.769   3.468  1.00 20.00     0.317 HD
ENDBRANCH   3   8
TORSDOF 2
