REMARK  2 active torsions:
REMARK  status: ('A' for Active; 'I' for Inactive)
REMARK    1  A    between atoms: C3_3  and  C7_7 
REMARK    2  A    between atoms: C8_8  and  C10_10 
ROOT
HETATM    1  C1  UNL     1     -34.543   6.185   6.639  1.00 20.00     0.021 C 
HETATM    2  C2  UNL     1     -34.286   5.816   5.526  1.00 20.00    -0.039 C 
HETATM    3  C3  UNL     1     -33.979   5.372   4.187  1.00 20.00     0.205 C 
HETATM    4  O11 UNL     1     -34.761   4.640   3.594  1.00 20.00    -0.283 OA
ENDROOT
BRANCH   3   5
HETATM    5  C7  UNL     1     -32.686   5.858   3.606  1.00 20.00     0.069 C 
HETATM    6  C4  UNL     1     -32.335   7.243   4.155  1.00 20.00     0.013 C 
HETATM    7  C5  UNL     1     -32.716   8.211   3.043  1.00 20.00     0.005 C 
HETATM    8  C8  UNL     1     -32.344   7.440   1.781  1.00 20.00    -0.014 C 
HETATM    9  C6  UNL     1     -32.813   6.015   2.086  1.00 20.00     0.017 C 
BRANCH   8  10
HETATM   10  C10 UNL     1     -32.965   8.020   0.522  1.00 20.00     0.000 C 
HETATM   11  C9  UNL     1     -32.512   9.424   0.269  1.00 20.00     0.005 C 
ENDBRANCH   8  10
ENDBRANCH   3   5
TORSDOF 2
