REMARK  3 active torsions:
REMARK  status: ('A' for Active; 'I' for Inactive)
REMARK    1  A    between atoms: C2_2  and  C8_8 
REMARK    2  A    between atoms: C6_6  and  C8_8 
REMARK    3  A    between atoms: C8_8  and  N9_9 
ROOT
HETATM    1  C8  UNL     1     -34.565   4.828   4.728  1.00 20.00     0.248 C 
ENDROOT
BRANCH   1   2
HETATM    2  C2  UNL     1     -34.401   5.132   6.191  1.00 20.00    -0.002 C 
HETATM    3  C1  UNL     1     -34.814   6.265   6.771  1.00 20.00     0.009 C 
ENDBRANCH   1   2
BRANCH   1   4
HETATM    4  C6  UNL     1     -33.399   5.352   3.912  1.00 20.00     0.048 C 
HETATM    5  C3  UNL     1     -33.530   5.121   2.422  1.00 20.00     0.035 C 
HETATM    6  C4  UNL     1     -32.547   6.131   1.868  1.00 20.00     0.168 C 
HETATM    7  O10 UNL     1     -32.535   7.241   2.777  1.00 20.00    -0.391 OA
HETATM    8  C5  UNL     1     -33.243   6.862   3.968  1.00 20.00     0.174 C 
ENDBRANCH   1   4
BRANCH   1   9
HETATM    9  N9  UNL     1     -35.810   5.419   4.293  1.00 20.00     0.087 N 
HETATM   10  C7  UNL     1     -36.953   4.589   4.668  1.00 20.00     0.307 C 
HETATM   11  H25 UNL     1     -35.805   5.529   3.275  1.00 20.00     0.316 HD
ENDBRANCH   1   9
TORSDOF 3
