REMARK  2 active torsions:
REMARK  status: ('A' for Active; 'I' for Inactive)
REMARK    1  A    between atoms: C3_3  and  C7_7 
REMARK    2  A    between atoms: C8_8  and  C10_10 
ROOT
HETATM    1  C1  UNL     1     -33.520   2.320   4.376  1.00 20.00     0.021 C 
HETATM    2  C2  UNL     1     -33.915   3.454   4.360  1.00 20.00    -0.039 C 
HETATM    3  C3  UNL     1     -34.389   4.818   4.343  1.00 20.00     0.205 C 
HETATM    4  O11 UNL     1     -35.030   5.251   5.291  1.00 20.00    -0.283 OA
ENDROOT
BRANCH   3   5
HETATM    5  C7  UNL     1     -34.044   5.635   3.110  1.00 20.00     0.069 C 
HETATM    6  C4  UNL     1     -33.187   4.874   2.105  1.00 20.00     0.013 C 
HETATM    7  C5  UNL     1     -32.608   5.968   1.213  1.00 20.00     0.005 C 
HETATM    8  C8  UNL     1     -32.539   7.222   2.085  1.00 20.00    -0.014 C 
HETATM    9  C6  UNL     1     -33.183   6.859   3.420  1.00 20.00     0.017 C 
BRANCH   8  10
HETATM   10  C10 UNL     1     -33.353   8.328   1.437  1.00 20.00     0.000 C 
HETATM   11  C9  UNL     1     -32.810   8.710   0.096  1.00 20.00     0.005 C 
ENDBRANCH   8  10
ENDBRANCH   3   5
TORSDOF 2
