REMARK  4 active torsions:
REMARK  status: ('A' for Active; 'I' for Inactive)
REMARK    1  A    between atoms: C1_1  and  C5_5 
REMARK    2  A    between atoms: C1_1  and  C9_9 
REMARK    3  A    between atoms: C6_6  and  C10_10 
REMARK    4  A    between atoms: C9_9  and  C10_10 
ROOT
HETATM    1  C1  UNL     1     -33.651   6.074   3.271  1.00 20.00     0.131 C 
HETATM    2  O11 UNL     1     -33.883   5.133   2.513  1.00 20.00    -0.298 OA
ENDROOT
BRANCH   1   3
HETATM    3  C5  UNL     1     -34.521   6.334   4.473  1.00 20.00     0.059 A 
HETATM    4  C4  UNL     1     -33.863   6.444   5.804  1.00 20.00     0.017 A 
HETATM    5  C7  UNL     1     -34.727   5.257   5.482  1.00 20.00    -0.007 A 
HETATM    6  C8  UNL     1     -34.120   3.901   5.372  1.00 20.00     0.011 C 
ENDBRANCH   1   3
BRANCH   1   7
HETATM    7  C9  UNL     1     -32.492   7.033   3.065  1.00 20.00     0.079 C 
BRANCH   7   8
HETATM    8  C10 UNL     1     -32.153   7.233   1.590  1.00 20.00     0.012 C 
BRANCH   8   9
HETATM    9  C6  UNL     1     -33.344   7.768   0.813  1.00 20.00    -0.014 A 
HETATM   10  C2  UNL     1     -33.562   9.250   0.684  1.00 20.00     0.005 A 
HETATM   11  C3  UNL     1     -33.139   8.446  -0.514  1.00 20.00     0.005 A 
ENDBRANCH   8   9
ENDBRANCH   7   8
ENDBRANCH   1   7
TORSDOF 4
