REMARK  3 active torsions:
REMARK  status: ('A' for Active; 'I' for Inactive)
REMARK    1  A    between atoms: C6_6  and  C10_10 
REMARK    2  A    between atoms: C7_7  and  C11_11 
REMARK    3  A    between atoms: C11_11  and  N12_12 
ROOT
HETATM    1  C1  UNL     1     -34.439   7.157   6.600  1.00 20.00     0.014 C 
HETATM    2  C2  UNL     1     -33.983   6.570   5.657  1.00 20.00    -0.081 C 
HETATM    3  C11 UNL     1     -33.423   5.848   4.505  1.00 20.00     0.301 C 
ENDROOT
BRANCH   3   4
HETATM    4  C7  UNL     1     -33.301   6.756   3.292  1.00 20.00     0.031 C 
HETATM    5  C4  UNL     1     -32.381   7.962   3.530  1.00 20.00     0.008 C 
HETATM    6  C3  UNL     1     -31.459   8.052   2.312  1.00 20.00     0.005 C 
HETATM    7  C6  UNL     1     -32.088   7.160   1.243  1.00 20.00    -0.014 C 
HETATM    8  C5  UNL     1     -32.715   6.041   2.072  1.00 20.00     0.012 C 
BRANCH   7   9
HETATM    9  C10 UNL     1     -33.115   7.912   0.399  1.00 20.00     0.000 C 
HETATM   10  C8  UNL     1     -32.496   9.045  -0.357  1.00 20.00     0.005 C 
ENDBRANCH   7   9
ENDBRANCH   3   4
BRANCH   3  11
HETATM   11  N12 UNL     1     -34.242   4.700   4.201  1.00 20.00     0.095 N 
HETATM   12  C9  UNL     1     -35.609   5.093   3.865  1.00 20.00     0.308 C 
HETATM   13  H31 UNL     1     -34.273   4.070   5.008  1.00 20.00     0.317 HD
ENDBRANCH   3  11
TORSDOF 3
