REMARK  2 active torsions:
REMARK  status: ('A' for Active; 'I' for Inactive)
REMARK    1  A    between atoms: C3_3  and  C8_8 
REMARK    2  A    between atoms: C9_9  and  C12_12 
ROOT
HETATM    1  C1  UNL     1     -34.925   5.936   6.776  1.00 20.00     0.021 C 
HETATM    2  C2  UNL     1     -34.591   5.438   5.736  1.00 20.00    -0.039 C 
HETATM    3  C3  UNL     1     -34.189   4.839   4.485  1.00 20.00     0.205 C 
HETATM    4  O13 UNL     1     -33.526   3.810   4.489  1.00 20.00    -0.283 OA
ENDROOT
BRANCH   3   5
HETATM    5  C8  UNL     1     -34.635   5.555   3.220  1.00 20.00     0.069 C 
HETATM    6  C4  UNL     1     -34.798   7.043   3.509  1.00 20.00     0.013 C 
HETATM    7  C6  UNL     1     -33.472   7.798   3.614  1.00 20.00     0.006 C 
HETATM    8  C9  UNL     1     -32.529   7.533   2.433  1.00 20.00    -0.011 C 
HETATM    9  C7  UNL     1     -32.326   6.026   2.233  1.00 20.00     0.006 C 
HETATM   10  C5  UNL     1     -33.639   5.252   2.106  1.00 20.00     0.013 C 
BRANCH   8  11
HETATM   11  C12 UNL     1     -33.018   8.215   1.153  1.00 20.00    -0.019 C 
HETATM   12  C10 UNL     1     -33.138   9.723   1.360  1.00 20.00     0.010 C 
HETATM   13  C11 UNL     1     -32.080   7.905  -0.012  1.00 20.00     0.010 C 
ENDBRANCH   8  11
ENDBRANCH   3   5
TORSDOF 2
