REMARK  3 active torsions:
REMARK  status: ('A' for Active; 'I' for Inactive)
REMARK    1  A    between atoms: C3_3  and  C7_7 
REMARK    2  A    between atoms: C6_6  and  O9_9 
REMARK    3  A    between atoms: C7_7  and  O9_9 
ROOT
HETATM    1  C1  UNL     1     -36.944   5.722   4.420  1.00 20.00     0.021 C 
HETATM    2  C2  UNL     1     -35.807   5.365   4.558  1.00 20.00    -0.037 C 
HETATM    3  C3  UNL     1     -34.437   4.931   4.725  1.00 20.00     0.230 C 
HETATM    4  O8  UNL     1     -34.162   3.749   4.564  1.00 20.00    -0.281 OA
ENDROOT
BRANCH   3   5
HETATM    5  C7  UNL     1     -33.434   5.995   5.127  1.00 20.00     0.200 C 
HETATM    6  C5  UNL     1     -33.823   6.682   6.426  1.00 20.00     0.049 C 
BRANCH   5   7
HETATM    7  O9  UNL     1     -33.358   6.961   4.090  1.00 20.00    -0.378 OA
BRANCH   7   8
HETATM    8  C6  UNL     1     -32.534   6.516   3.020  1.00 20.00     0.164 C 
HETATM    9  C4  UNL     1     -32.494   7.587   1.950  1.00 20.00     0.033 C 
ENDBRANCH   7   8
ENDBRANCH   5   7
ENDBRANCH   3   5
TORSDOF 3
