REMARK  2 active torsions:
REMARK  status: ('A' for Active; 'I' for Inactive)
REMARK    1  A    between atoms: C2_2  and  C3_3 
REMARK    2  A    between atoms: C3_3  and  C7_7 
ROOT
HETATM    1  C4  UNL     1     -34.640   5.100   5.982  1.00 20.00     0.002 C 
HETATM    2  C5  UNL     1     -34.421   4.413   4.617  1.00 20.00     0.012 C 
HETATM    3  C6  UNL     1     -33.956   6.345   5.379  1.00 20.00     0.012 C 
HETATM    4  C7  UNL     1     -34.412   5.831   3.990  1.00 20.00     0.059 C 
ENDROOT
BRANCH   4   5
HETATM    5  C3  UNL     1     -33.456   6.036   2.888  1.00 20.00     0.152 C 
HETATM    6  O8  UNL     1     -32.876   5.087   2.364  1.00 20.00    -0.293 OA
BRANCH   5   7
HETATM    7  C2  UNL     1     -33.256   7.437   2.429  1.00 20.00     0.040 C 
HETATM    8  C1  UNL     1     -32.407   7.715   1.435  1.00 20.00     0.015 C 
ENDBRANCH   5   7
ENDBRANCH   4   5
TORSDOF 2
