REMARK  1 active torsions:
REMARK  status: ('A' for Active; 'I' for Inactive)
REMARK    1  A    between atoms: C3_3  and  C7_7 
ROOT
HETATM    1  C1  UNL     1     -32.911   8.211   0.724  1.00 20.00     0.021 C 
HETATM    2  C2  UNL     1     -32.769   7.866   1.865  1.00 20.00    -0.039 C 
HETATM    3  C3  UNL     1     -32.597   7.451   3.237  1.00 20.00     0.208 C 
HETATM    4  O10 UNL     1     -31.487   7.498   3.753  1.00 20.00    -0.283 OA
ENDROOT
BRANCH   3   5
HETATM    5  C7  UNL     1     -33.828   6.981   3.948  1.00 20.00     0.100 C 
HETATM    6  C6  UNL     1     -33.701   7.189   5.461  1.00 20.00     0.047 C 
HETATM    7  C8  UNL     1     -33.840   5.761   5.989  1.00 20.00     0.122 C 
HETATM    8  C4  UNL     1     -35.272   5.254   5.820  1.00 20.00     0.034 C 
HETATM    9  O11 UNL     1     -33.153   5.015   4.960  1.00 20.00    -0.380 OA
HETATM   10  C5  UNL     1     -35.354   5.020   4.310  1.00 20.00     0.035 C 
HETATM   11  C9  UNL     1     -33.966   5.458   3.845  1.00 20.00     0.134 C 
ENDBRANCH   3   5
TORSDOF 1
