REMARK  2 active torsions:
REMARK  status: ('A' for Active; 'I' for Inactive)
REMARK    1  A    between atoms: C2_2  and  C3_3 
REMARK    2  A    between atoms: C3_3  and  C8_8 
ROOT
HETATM    1  C4  UNL     1     -33.656   7.158   6.228  1.00 20.00     0.027 C 
HETATM    2  C5  UNL     1     -32.987   7.289   4.864  1.00 20.00     0.017 C 
HETATM    3  C6  UNL     1     -34.354   5.811   6.359  1.00 20.00     0.167 C 
HETATM    4  C7  UNL     1     -34.660   5.617   4.018  1.00 20.00     0.180 C 
HETATM    5  C8  UNL     1     -33.975   6.954   3.748  1.00 20.00     0.083 C 
HETATM    6  O10 UNL     1     -35.291   5.622   5.299  1.00 20.00    -0.390 OA
ENDROOT
BRANCH   5   7
HETATM    7  C3  UNL     1     -33.261   6.916   2.434  1.00 20.00     0.154 C 
HETATM    8  O9  UNL     1     -32.805   5.866   1.988  1.00 20.00    -0.293 OA
BRANCH   7   9
HETATM    9  C2  UNL     1     -33.161   8.201   1.691  1.00 20.00     0.040 C 
HETATM   10  C1  UNL     1     -32.541   8.261   0.509  1.00 20.00     0.015 C 
ENDBRANCH   7   9
ENDBRANCH   5   7
TORSDOF 2
