REMARK  5 active torsions:
REMARK  status: ('A' for Active; 'I' for Inactive)
REMARK    1  A    between atoms: C3_3  and  C5_5 
REMARK    2  A    between atoms: C3_3  and  C7_7 
REMARK    3  A    between atoms: C4_4  and  C6_6 
REMARK    4  A    between atoms: C4_4  and  C7_7 
REMARK    5  A    between atoms: C5_5  and  S8_8 
ROOT
HETATM    1  C1  UNL     1     -33.846   4.818   2.817  1.00 20.00     0.010 C 
HETATM    2  C7  UNL     1     -33.056   6.029   3.329  1.00 20.00    -0.017 C 
ENDROOT
BRANCH   2   3
HETATM    3  C3  UNL     1     -32.521   6.885   2.160  1.00 20.00     0.014 C 
BRANCH   3   4
HETATM    4  C5  UNL     1     -33.595   7.409   1.206  1.00 20.00     0.073 C 
BRANCH   4   5
HETATM    5  S8  UNL     1     -32.840   8.404  -0.115  1.00 20.00    -0.173 SA
HETATM    6  C2  UNL     1     -32.676   9.958   0.792  1.00 20.00     0.089 C 
ENDBRANCH   4   5
ENDBRANCH   3   4
ENDBRANCH   2   3
BRANCH   2   7
HETATM    7  C4  UNL     1     -33.912   6.809   4.349  1.00 20.00     0.019 C 
BRANCH   7   8
HETATM    8  C6  UNL     1     -33.902   6.270   5.778  1.00 20.00     0.115 C 
HETATM    9 CL9  UNL     1     -34.476   4.590   5.866  1.00 20.00    -0.130 Cl
ENDBRANCH   7   8
ENDBRANCH   2   7
TORSDOF 5
