REMARK  1 active torsions:
REMARK  status: ('A' for Active; 'I' for Inactive)
REMARK    1  A    between atoms: C3_3  and  C8_8 
ROOT
HETATM    1  C1  UNL     1     -31.523   7.415   2.650  1.00 20.00     0.016 A 
HETATM    2  C2  UNL     1     -31.608   8.242   1.493  1.00 20.00     0.015 A 
HETATM    3  C3  UNL     1     -32.705   6.753   2.900  1.00 20.00    -0.013 A 
HETATM    4  C4  UNL     1     -32.852   8.180   0.903  1.00 20.00    -0.021 A 
HETATM    5  C10 UNL     1     -33.333   8.884  -0.305  1.00 20.00     0.056 C 
HETATM    6  S11 UNL     1     -33.910   7.128   1.743  1.00 20.00    -0.099 SA
ENDROOT
BRANCH   3   7
HETATM    7  C8  UNL     1     -33.024   5.789   4.021  1.00 20.00     0.027 C 
HETATM    8  C5  UNL     1     -34.159   6.297   4.931  1.00 20.00     0.011 C 
HETATM    9  C6  UNL     1     -34.940   5.047   5.314  1.00 20.00     0.016 C 
HETATM   10  C9  UNL     1     -34.894   4.227   4.039  1.00 20.00     0.058 C 
HETATM   11  C7  UNL     1     -33.460   4.383   3.552  1.00 20.00     0.025 C 
HETATM   12 BR12 UNL     1     -35.345   2.377   4.369  1.00 20.00    -0.091 Br
ENDBRANCH   3   7
TORSDOF 1
