REMARK  1 active torsions:
REMARK  status: ('A' for Active; 'I' for Inactive)
REMARK    1  A    between atoms: C3_3  and  C9_9 
ROOT
HETATM    1  C1  UNL     1     -32.976   5.328   2.136  1.00 20.00     0.016 A 
HETATM    2  C2  UNL     1     -33.614   4.936   3.348  1.00 20.00     0.015 A 
HETATM    3  C3  UNL     1     -32.581   6.647   2.162  1.00 20.00    -0.013 A 
HETATM    4  C4  UNL     1     -33.681   5.971   4.255  1.00 20.00    -0.021 A 
HETATM    5  C10 UNL     1     -34.262   5.966   5.616  1.00 20.00     0.056 C 
HETATM    6  S12 UNL     1     -32.978   7.407   3.644  1.00 20.00    -0.099 SA
ENDROOT
BRANCH   3   7
HETATM    7  C9  UNL     1     -31.873   7.444   1.079  1.00 20.00     0.033 C 
HETATM    8  C7  UNL     1     -32.216   7.083  -0.375  1.00 20.00     0.088 C 
HETATM    9  C5  UNL     1     -33.327   8.050  -0.705  1.00 20.00     0.127 C 
HETATM   10  C6  UNL     1     -33.476   9.127   0.338  1.00 20.00     0.079 C 
HETATM   11  O11 UNL     1     -34.027   7.969  -1.706  1.00 20.00    -0.298 OA
HETATM   12  C8  UNL     1     -32.209   8.941   1.166  1.00 20.00     0.018 C 
ENDBRANCH   3   7
TORSDOF 1
