REMARK  1 active torsions:
REMARK  status: ('A' for Active; 'I' for Inactive)
REMARK    1  A    between atoms: C3_3  and  C8_8 
ROOT
HETATM    1  C1  UNL     1     -32.686   6.744   1.981  1.00 20.00     0.016 A 
HETATM    2  C2  UNL     1     -32.612   7.773   0.999  1.00 20.00     0.015 A 
HETATM    3  C3  UNL     1     -33.238   7.192   3.161  1.00 20.00    -0.012 A 
HETATM    4  C4  UNL     1     -33.110   8.970   1.466  1.00 20.00    -0.021 A 
HETATM    5  C10 UNL     1     -33.210  10.264   0.757  1.00 20.00     0.056 C 
HETATM    6  S11 UNL     1     -33.664   8.849   3.082  1.00 20.00    -0.099 SA
ENDROOT
BRANCH   3   7
HETATM    7  C8  UNL     1     -33.490   6.419   4.437  1.00 20.00     0.040 C 
HETATM    8  C6  UNL     1     -34.079   7.292   5.559  1.00 20.00     0.011 C 
HETATM    9  C5  UNL     1     -34.862   6.306   6.412  1.00 20.00     0.002 C 
HETATM   10  C7  UNL     1     -35.531   5.414   5.376  1.00 20.00     0.016 C 
HETATM   11  C9  UNL     1     -34.487   5.253   4.272  1.00 20.00     0.067 C 
HETATM   12 BR12 UNL     1     -33.553   3.543   4.492  1.00 20.00    -0.090 Br
ENDBRANCH   3   7
TORSDOF 1
