REMARK  4 active torsions:
REMARK  status: ('A' for Active; 'I' for Inactive)
REMARK    1  A    between atoms: C1_1  and  C5_5 
REMARK       I    between atoms: C1_1  and  N8_8 
REMARK    2  A    between atoms: C5_5  and  S10_10 
REMARK    3  A    between atoms: C6_6  and  N8_8 
REMARK    4  A    between atoms: C7_7  and  N8_8 
ROOT
HETATM    1  C1  UNL     1     -32.918   6.589   3.543  1.00 20.00     0.229 C 
HETATM    2  N8  UNL     1     -33.657   5.429   3.275  1.00 20.00    -0.348 N 
HETATM    3  O9  UNL     1     -33.001   7.204   4.610  1.00 20.00    -0.273 OA
ENDROOT
BRANCH   2   4
HETATM    4  C6  UNL     1     -33.552   4.708   2.008  1.00 20.00     0.121 C 
HETATM    5  C2  UNL     1     -32.486   3.667   2.068  1.00 20.00     0.026 C 
ENDBRANCH   2   4
BRANCH   2   6
HETATM    6  C7  UNL     1     -34.586   4.852   4.240  1.00 20.00     0.079 C 
HETATM    7  C3  UNL     1     -35.679   5.866   4.546  1.00 20.00     0.032 C 
HETATM    8  C4  UNL     1     -33.816   4.460   5.492  1.00 20.00     0.032 C 
ENDBRANCH   2   6
BRANCH   1   9
HETATM    9  C5  UNL     1     -31.997   7.052   2.428  1.00 20.00     0.173 C 
BRANCH   9  10
HETATM   10  S10 UNL     1     -32.822   8.200   1.296  1.00 20.00    -0.173 SA
HETATM   11  H25 UNL     1     -31.771   8.388   0.486  1.00 20.00     0.102 HD
ENDBRANCH   9  10
ENDBRANCH   1   9
TORSDOF 4
