REMARK  4 active torsions:
REMARK  status: ('A' for Active; 'I' for Inactive)
REMARK    1  A    between atoms: C1_1  and  C8_8 
REMARK    2  A    between atoms: C1_1  and  O11_11 
REMARK    3  A    between atoms: C4_4  and  C8_8 
REMARK    4  A    between atoms: C8_8  and  N9_9 
ROOT
HETATM    1  C8  UNL     1     -33.817   6.614   2.562  1.00 20.00     0.324 C 
ENDROOT
BRANCH   1   2
HETATM    2  C1  UNL     1     -33.783   6.486   4.078  1.00 20.00     0.292 C 
HETATM    3  O10 UNL     1     -32.998   7.118   4.778  1.00 20.00    -0.263 OA
BRANCH   2   4
HETATM    4  O11 UNL     1     -34.716   5.609   4.543  1.00 20.00    -0.325 OA
HETATM    5  C7  UNL     1     -34.756   5.438   5.964  1.00 20.00     0.213 C 
ENDBRANCH   2   4
ENDBRANCH   1   2
BRANCH   1   6
HETATM    6  C4  UNL     1     -32.758   7.598   2.091  1.00 20.00     0.029 A 
HETATM    7  C2  UNL     1     -32.921   8.316   0.780  1.00 20.00     0.008 A 
HETATM    8  C3  UNL     1     -33.050   9.073   2.072  1.00 20.00     0.008 A 
ENDBRANCH   1   6
BRANCH   1   9
HETATM    9  N9  UNL     1     -33.642   5.341   1.912  1.00 20.00     0.094 N 
HETATM   10  C5  UNL     1     -34.896   4.573   1.898  1.00 20.00     0.310 C 
HETATM   11  C6  UNL     1     -32.588   4.550   2.563  1.00 20.00     0.310 C 
ENDBRANCH   1   9
TORSDOF 4
