REMARK  1 active torsions:
REMARK  status: ('A' for Active; 'I' for Inactive)
REMARK    1  A    between atoms: C3_3  and  C8_8 
ROOT
HETATM    1  C1  UNL     1     -33.323   5.866   1.641  1.00 20.00     0.016 A 
HETATM    2  C2  UNL     1     -33.139   6.647   0.463  1.00 20.00     0.015 A 
HETATM    3  C3  UNL     1     -33.094   6.596   2.787  1.00 20.00    -0.012 A 
HETATM    4  C4  UNL     1     -32.777   7.944   0.754  1.00 20.00    -0.021 A 
HETATM    5  C10 UNL     1     -32.499   9.054  -0.184  1.00 20.00     0.056 C 
HETATM    6  S11 UNL     1     -32.660   8.216   2.440  1.00 20.00    -0.099 SA
ENDROOT
BRANCH   3   7
HETATM    7  C8  UNL     1     -33.182   6.141   4.227  1.00 20.00     0.040 C 
HETATM    8  C6  UNL     1     -33.562   7.184   5.291  1.00 20.00     0.011 C 
HETATM    9  C5  UNL     1     -33.958   6.373   6.526  1.00 20.00     0.002 C 
HETATM   10  C7  UNL     1     -34.182   4.936   6.052  1.00 20.00     0.016 C 
HETATM   11  C9  UNL     1     -34.152   4.988   4.529  1.00 20.00     0.067 C 
HETATM   12 BR12 UNL     1     -35.960   5.333   3.857  1.00 20.00    -0.090 Br
ENDBRANCH   3   7
TORSDOF 1
