REMARK  5 active torsions:
REMARK  status: ('A' for Active; 'I' for Inactive)
REMARK    1  A    between atoms: C1_1  and  C9_9 
REMARK    2  A    between atoms: C6_6  and  C7_7 
REMARK    3  A    between atoms: C6_6  and  C8_8 
REMARK    4  A    between atoms: C7_7  and  C9_9 
REMARK    5  A    between atoms: C8_8  and  C10_10 
ROOT
HETATM    1  C6  UNL     1     -32.957   6.639   2.869  1.00 20.00     0.001 C 
ENDROOT
BRANCH   1   2
HETATM    2  C7  UNL     1     -31.756   6.473   1.931  1.00 20.00     0.011 C 
BRANCH   2   3
HETATM    3  C9  UNL     1     -31.522   7.687   1.018  1.00 20.00     0.043 C 
HETATM    4  C2  UNL     1     -30.316   7.519   0.099  1.00 20.00     0.017 C 
BRANCH   3   5
HETATM    5  C1  UNL     1     -32.789   7.934   0.217  1.00 20.00     0.235 C 
HETATM    6  O11 UNL     1     -33.471   8.951   0.283  1.00 20.00    -0.306 OA
ENDBRANCH   3   5
ENDBRANCH   2   3
ENDBRANCH   1   2
BRANCH   1   7
HETATM    7  C8  UNL     1     -33.184   5.370   3.701  1.00 20.00     0.008 C 
BRANCH   7   8
HETATM    8  C10 UNL     1     -34.338   5.439   4.737  1.00 20.00    -0.051 C 
HETATM    9  C3  UNL     1     -34.370   4.104   5.508  1.00 20.00     0.014 C 
HETATM   10  C4  UNL     1     -34.115   6.578   5.745  1.00 20.00     0.014 C 
HETATM   11  C5  UNL     1     -35.696   5.634   4.044  1.00 20.00     0.014 C 
ENDBRANCH   7   8
ENDBRANCH   1   7
TORSDOF 5
