REMARK  3 active torsions:
REMARK  status: ('A' for Active; 'I' for Inactive)
REMARK    1  A    between atoms: C4_4  and  C9_9 
REMARK    2  A    between atoms: C7_7  and  C8_8 
REMARK    3  A    between atoms: C7_7  and  N10_10 
ROOT
HETATM    1  C1  UNL     1     -33.368   7.848   6.254  1.00 20.00     0.032 C 
HETATM    2  C2  UNL     1     -33.703   6.387   6.534  1.00 20.00     0.038 C 
HETATM    3  C3  UNL     1     -32.981   7.893   4.785  1.00 20.00     0.273 C 
HETATM    4  C4  UNL     1     -33.500   5.663   5.201  1.00 20.00     0.226 C 
HETATM    5  N10 UNL     1     -33.683   6.739   4.217  1.00 20.00     0.094 N 
ENDROOT
BRANCH   4   6
HETATM    6  C9  UNL     1     -34.482   4.512   5.028  1.00 20.00     0.011 C 
HETATM    7  C5  UNL     1     -35.856   5.032   4.607  1.00 20.00     0.011 C 
HETATM    8  C6  UNL     1     -33.958   3.503   4.006  1.00 20.00     0.011 C 
ENDBRANCH   4   6
BRANCH   5   9
HETATM    9  C7  UNL     1     -33.173   6.404   2.893  1.00 20.00     0.287 C 
BRANCH   9  10
HETATM   10  C8  UNL     1     -32.950   7.631   2.025  1.00 20.00     0.144 C 
HETATM   11 CL11 UNL     1     -32.333   7.182   0.415  1.00 20.00    -0.129 Cl
ENDBRANCH   9  10
ENDBRANCH   5   9
TORSDOF 3
