REMARK  1 active torsions:
REMARK  status: ('A' for Active; 'I' for Inactive)
REMARK    1  A    between atoms: C3_3  and  C6_6 
ROOT
HETATM    1  C1  UNL     1     -32.574   7.690   0.915  1.00 20.00     0.087 C 
HETATM    2  C5  UNL     1     -32.903   6.806   1.979  1.00 20.00     0.095 C 
HETATM    3  C6  UNL     1     -33.356   7.235   3.208  1.00 20.00     0.032 C 
HETATM    4  N8  UNL     1     -32.304   8.407   0.043  1.00 20.00    -0.192 NA
ENDROOT
BRANCH   3   5
HETATM    5  C3  UNL     1     -33.696   6.435   4.318  1.00 20.00     0.031 A 
HETATM    6  C4  UNL     1     -34.219   5.160   4.372  1.00 20.00     0.048 A 
HETATM    7  C7  UNL     1     -34.557   4.303   3.215  1.00 20.00     0.072 C 
HETATM    8  N9  UNL     1     -34.441   4.651   5.636  1.00 20.00    -0.258 NA
HETATM    9  C2  UNL     1     -34.083   5.551   6.525  1.00 20.00     0.167 A 
HETATM   10  S10 UNL     1     -33.471   7.032   5.910  1.00 20.00    -0.081 SA
ENDBRANCH   3   5
TORSDOF 1
