REMARK  0 active torsions:
REMARK  status: ('A' for Active; 'I' for Inactive)
ROOT
HETATM    1  C1  UNL     1     -32.959   7.378   1.513  1.00 20.00     0.002 C 
HETATM    2  C2  UNL     1     -32.402   6.414   2.591  1.00 20.00     0.015 C 
HETATM    3  C3  UNL     1     -33.156   8.427   2.637  1.00 20.00     0.015 C 
HETATM    4  C4  UNL     1     -34.487   5.945   6.310  1.00 20.00     0.036 C 
HETATM    5  C5  UNL     1     -34.371   4.783   5.331  1.00 20.00     0.168 C 
HETATM    6  C6  UNL     1     -34.109   7.188   5.510  1.00 20.00     0.050 C 
HETATM    7  C7  UNL     1     -32.632   7.342   5.022  1.00 20.00     0.178 C 
HETATM    8  C8  UNL     1     -34.515   6.757   4.074  1.00 20.00     0.139 C 
HETATM    9  C9  UNL     1     -33.154   7.254   3.606  1.00 20.00     0.016 C 
HETATM   10  O10 UNL     1     -32.079   8.575   5.398  1.00 20.00    -0.234 OA
HETATM   11  O11 UNL     1     -34.771   5.331   4.070  1.00 20.00    -0.385 OA
ENDROOT
TORSDOF 0
