REMARK  2 active torsions:
REMARK  status: ('A' for Active; 'I' for Inactive)
REMARK    1  A    between atoms: C1_1  and  C7_7 
REMARK    2  A    between atoms: C3_3  and  C7_7 
ROOT
HETATM    1  C2  UNL     1     -32.816   5.898   2.194  1.00 20.00     0.015 A 
HETATM    2  C3  UNL     1     -33.901   6.664   2.903  1.00 20.00     0.004 A 
HETATM    3  C4  UNL     1     -32.819   7.411   2.141  1.00 20.00    -0.043 A 
HETATM    4  C5  UNL     1     -33.220   8.069   0.847  1.00 20.00     0.015 C 
HETATM    5  C6  UNL     1     -31.739   8.146   2.890  1.00 20.00     0.015 C 
ENDROOT
BRANCH   2   6
HETATM    6  C7  UNL     1     -33.979   6.656   4.391  1.00 20.00     0.118 C 
BRANCH   6   7
HETATM    7  C1  UNL     1     -34.675   5.437   5.031  1.00 20.00     0.172 C 
HETATM    8  O8  UNL     1     -34.676   5.406   6.292  1.00 20.00    -0.648 OA
HETATM    9  O9  UNL     1     -35.165   4.611   4.208  1.00 20.00    -0.648 OA
ENDBRANCH   6   7
ENDBRANCH   2   6
TORSDOF 2
