REMARK  2 active torsions:
REMARK  status: ('A' for Active; 'I' for Inactive)
REMARK    1  A    between atoms: C6_6  and  C7_7 
REMARK    2  A    between atoms: C7_7  and  N8_8 
ROOT
HETATM    1  C1  UNL     1     -32.715   8.406   1.331  1.00 20.00     0.157 C 
HETATM    2  N8  UNL     1     -32.665   7.392   1.928  1.00 20.00    -0.274 NA
HETATM    3  S9  UNL     1     -32.786   9.765   0.505  1.00 20.00    -0.055 SA
ENDROOT
BRANCH   2   4
HETATM    4  C7  UNL     1     -32.482   7.530   3.368  1.00 20.00     0.165 C 
BRANCH   4   5
HETATM    5  C6  UNL     1     -33.673   6.888   4.075  1.00 20.00     0.067 C 
HETATM    6  C4  UNL     1     -33.537   7.008   5.595  1.00 20.00     0.017 C 
HETATM    7  C2  UNL     1     -34.728   6.422   6.352  1.00 20.00     0.002 C 
HETATM    8  C3  UNL     1     -34.934   4.936   6.076  1.00 20.00     0.010 C 
HETATM    9  C5  UNL     1     -35.186   4.633   4.605  1.00 20.00     0.074 C 
HETATM   10  S10 UNL     1     -33.788   5.138   3.564  1.00 20.00    -0.163 SA
ENDBRANCH   4   5
ENDBRANCH   2   4
TORSDOF 2
