REMARK  2 active torsions:
REMARK  status: ('A' for Active; 'I' for Inactive)
REMARK    1  A    between atoms: C6_6  and  C7_7 
REMARK    2  A    between atoms: C7_7  and  N8_8 
ROOT
HETATM    1  C1  UNL     1     -32.629   8.369   0.881  1.00 20.00     0.157 C 
HETATM    2  N8  UNL     1     -32.645   7.338   1.448  1.00 20.00    -0.274 NA
HETATM    3  S9  UNL     1     -32.612   9.753   0.093  1.00 20.00    -0.055 SA
ENDROOT
BRANCH   2   4
HETATM    4  C7  UNL     1     -32.421   7.419   2.888  1.00 20.00     0.165 C 
BRANCH   4   5
HETATM    5  C6  UNL     1     -33.643   6.852   3.605  1.00 20.00     0.067 C 
HETATM    6  C4  UNL     1     -33.872   5.388   3.219  1.00 20.00     0.017 C 
HETATM    7  C2  UNL     1     -35.112   4.782   3.874  1.00 20.00     0.002 C 
HETATM    8  C3  UNL     1     -35.047   4.799   5.398  1.00 20.00     0.010 C 
HETATM    9  C5  UNL     1     -34.916   6.202   5.973  1.00 20.00     0.074 C 
HETATM   10  S10 UNL     1     -33.401   7.024   5.407  1.00 20.00    -0.163 SA
ENDBRANCH   4   5
ENDBRANCH   2   4
TORSDOF 2
