REMARK  2 active torsions:
REMARK  status: ('A' for Active; 'I' for Inactive)
REMARK    1  A    between atoms: C1_1  and  C7_7 
REMARK    2  A    between atoms: C8_8  and  C11_11 
ROOT
HETATM    1  C2  UNL     1     -32.457   4.857   2.616  1.00 20.00     0.001 C 
HETATM    2  C3  UNL     1     -33.944   4.755   2.953  1.00 20.00     0.011 C 
HETATM    3  C4  UNL     1     -33.507   6.937   4.316  1.00 20.00     0.012 C 
HETATM    4  C5  UNL     1     -32.062   6.061   1.752  1.00 20.00     0.005 C 
HETATM    5  C6  UNL     1     -33.186   7.896   3.171  1.00 20.00     0.005 C 
HETATM    6  C7  UNL     1     -34.465   5.796   3.963  1.00 20.00     0.047 C 
HETATM    7  C8  UNL     1     -33.003   7.274   1.781  1.00 20.00    -0.011 C 
ENDROOT
BRANCH   7   8
HETATM    8  C11 UNL     1     -32.499   8.344   0.804  1.00 20.00    -0.019 C 
HETATM    9  C9  UNL     1     -32.420   7.777  -0.609  1.00 20.00     0.010 C 
HETATM   10  C10 UNL     1     -33.404   9.570   0.848  1.00 20.00     0.010 C 
ENDBRANCH   7   8
BRANCH   6  11
HETATM   11  C1  UNL     1     -34.822   5.083   5.236  1.00 20.00     0.235 C 
HETATM   12  O12 UNL     1     -34.332   5.360   6.326  1.00 20.00    -0.306 OA
ENDBRANCH   6  11
TORSDOF 2
