REMARK  3 active torsions:
REMARK  status: ('A' for Active; 'I' for Inactive)
REMARK    1  A    between atoms: C6_6  and  C9_9 
REMARK    2  A    between atoms: C7_7  and  C10_10 
REMARK    3  A    between atoms: C9_9  and  C11_11 
ROOT
HETATM    1  C1  UNL     1     -33.675   6.960   5.751  1.00 20.00     0.001 C 
HETATM    2  C2  UNL     1     -32.806   7.113   4.493  1.00 20.00     0.005 C 
HETATM    3  C3  UNL     1     -35.054   6.329   5.566  1.00 20.00     0.005 C 
HETATM    4  C4  UNL     1     -34.036   5.597   2.797  1.00 20.00     0.005 C 
HETATM    5  C5  UNL     1     -34.081   4.573   3.931  1.00 20.00     0.006 C 
HETATM    6  C6  UNL     1     -33.560   7.022   3.159  1.00 20.00    -0.014 C 
HETATM    7  C7  UNL     1     -35.067   4.879   5.065  1.00 20.00    -0.001 C 
ENDROOT
BRANCH   6   8
HETATM    8  C9  UNL     1     -32.691   7.578   2.024  1.00 20.00     0.004 C 
BRANCH   8   9
HETATM    9  C11 UNL     1     -33.537   7.921   0.806  1.00 20.00    -0.004 C 
HETATM   10  C8  UNL     1     -32.678   8.495  -0.310  1.00 20.00     0.005 C 
ENDBRANCH   8   9
ENDBRANCH   6   8
BRANCH   7  11
HETATM   11  C10 UNL     1     -34.831   3.902   6.223  1.00 20.00     0.119 C 
HETATM   12 CL12 UNL     1     -35.414   2.290   5.780  1.00 20.00    -0.130 Cl
ENDBRANCH   7  11
TORSDOF 3
