REMARK  4 active torsions:
REMARK  status: ('A' for Active; 'I' for Inactive)
REMARK    1  A    between atoms: C3_3  and  C6_6 
REMARK    2  A    between atoms: C4_4  and  C6_6 
REMARK    3  A    between atoms: C4_4  and  O7_7 
REMARK    4  A    between atoms: C5_5  and  C6_6 
ROOT
HETATM    1  C6  UNL     1     -33.002   6.223   3.208  1.00 20.00     0.023 C 
ENDROOT
BRANCH   1   2
HETATM    2  C3  UNL     1     -33.621   4.973   2.543  1.00 20.00     0.003 C 
HETATM    3  C1  UNL     1     -34.152   3.949   3.536  1.00 20.00     0.005 C 
ENDBRANCH   1   2
BRANCH   1   4
HETATM    4  C4  UNL     1     -32.403   7.159   2.145  1.00 20.00     0.172 C 
BRANCH   4   5
HETATM    5  O7  UNL     1     -33.413   7.559   1.226  1.00 20.00    -0.396 OA
HETATM    6  C2  UNL     1     -32.897   8.437   0.236  1.00 20.00     0.201 C 
ENDBRANCH   4   5
ENDBRANCH   1   4
BRANCH   1   7
HETATM    7  C5  UNL     1     -33.964   6.985   4.135  1.00 20.00     0.121 C 
HETATM    8 CL8  UNL     1     -34.158   6.228   5.734  1.00 20.00    -0.130 Cl
ENDBRANCH   1   7
TORSDOF 4
