REMARK  2 active torsions:
REMARK  status: ('A' for Active; 'I' for Inactive)
REMARK    1  A    between atoms: C1_1  and  C5_5 
REMARK    2  A    between atoms: C6_6  and  C8_8 
ROOT
HETATM    1  C2  UNL     1     -33.812   4.403   3.502  1.00 20.00     0.012 C 
HETATM    2  C3  UNL     1     -32.935   4.759   2.305  1.00 20.00     0.005 C 
HETATM    3  C4  UNL     1     -33.157   6.671   3.819  1.00 20.00     0.016 C 
HETATM    4  C5  UNL     1     -34.366   5.746   3.963  1.00 20.00     0.047 C 
HETATM    5  C6  UNL     1     -32.457   6.191   2.549  1.00 20.00    -0.014 C 
ENDROOT
BRANCH   4   6
HETATM    6  C1  UNL     1     -34.927   5.710   5.374  1.00 20.00     0.235 C 
HETATM    7  O9  UNL     1     -34.473   6.376   6.299  1.00 20.00    -0.306 OA
ENDBRANCH   4   6
BRANCH   5   8
HETATM    8  C8  UNL     1     -32.894   7.069   1.392  1.00 20.00     0.000 C 
HETATM    9  C7  UNL     1     -32.503   8.499   1.595  1.00 20.00     0.005 C 
ENDBRANCH   5   8
TORSDOF 2
