REMARK  2 active torsions:
REMARK  status: ('A' for Active; 'I' for Inactive)
REMARK    1  A    between atoms: C1_1  and  C7_7 
REMARK    2  A    between atoms: C8_8  and  C10_10 
ROOT
HETATM    1  C2  UNL     1     -32.772   4.574   2.183  1.00 20.00     0.001 C 
HETATM    2  C3  UNL     1     -33.521   4.683   3.517  1.00 20.00     0.011 C 
HETATM    3  C4  UNL     1     -32.709   7.025   4.228  1.00 20.00     0.012 C 
HETATM    4  C5  UNL     1     -32.885   5.791   1.269  1.00 20.00     0.004 C 
HETATM    5  C6  UNL     1     -31.605   7.039   3.170  1.00 20.00     0.005 C 
HETATM    6  C7  UNL     1     -33.905   6.095   3.981  1.00 20.00     0.047 C 
HETATM    7  C8  UNL     1     -32.041   6.999   1.703  1.00 20.00    -0.015 C 
ENDROOT
BRANCH   6   8
HETATM    8  C1  UNL     1     -34.755   6.010   5.256  1.00 20.00     0.235 C 
HETATM    9  O11 UNL     1     -34.461   6.575   6.304  1.00 20.00    -0.306 OA
ENDBRANCH   6   8
BRANCH   7  10
HETATM   10  C10 UNL     1     -32.747   8.270   1.334  1.00 20.00     0.000 C 
HETATM   11  C9  UNL     1     -33.089   8.302  -0.117  1.00 20.00     0.005 C 
ENDBRANCH   7  10
TORSDOF 2
