REMARK  1 active torsions:
REMARK  status: ('A' for Active; 'I' for Inactive)
REMARK    1  A    between atoms: C1_1  and  C7_7 
ROOT
HETATM    1  C2  UNL     1     -34.673   6.085   4.890  1.00 20.00     0.001 C 
HETATM    2  C3  UNL     1     -33.529   6.785   4.161  1.00 20.00     0.011 C 
HETATM    3  C4  UNL     1     -32.729   5.174   2.366  1.00 20.00     0.012 C 
HETATM    4  C5  UNL     1     -35.240   4.794   4.300  1.00 20.00     0.008 C 
HETATM    5  C6  UNL     1     -33.624   3.946   2.510  1.00 20.00     0.009 C 
HETATM    6  C7  UNL     1     -33.421   6.506   2.664  1.00 20.00     0.047 C 
HETATM    7  C8  UNL     1     -34.254   3.673   3.897  1.00 20.00    -0.048 C 
HETATM    8  C9  UNL     1     -35.077   2.366   3.761  1.00 20.00     0.015 C 
HETATM    9  C10 UNL     1     -33.181   3.428   4.969  1.00 20.00     0.015 C 
ENDROOT
BRANCH   6  10
HETATM   10  C1  UNL     1     -32.605   7.607   2.048  1.00 20.00     0.235 C 
HETATM   11  O11 UNL     1     -33.036   8.366   1.186  1.00 20.00    -0.306 OA
ENDBRANCH   6  10
TORSDOF 1
