REMARK  2 active torsions:
REMARK  status: ('A' for Active; 'I' for Inactive)
REMARK    1  A    between atoms: C5_5  and  C8_8 
REMARK    2  A    between atoms: C6_6  and  C9_9 
ROOT
HETATM    1  C1  UNL     1     -33.497   4.695   2.296  1.00 20.00     0.001 C 
HETATM    2  C2  UNL     1     -34.144   4.512   3.665  1.00 20.00     0.005 C 
HETATM    3  C3  UNL     1     -32.364   5.719   2.339  1.00 20.00     0.005 C 
HETATM    4  C4  UNL     1     -33.479   6.868   4.296  1.00 20.00     0.010 C 
HETATM    5  C5  UNL     1     -34.624   5.844   4.254  1.00 20.00    -0.014 C 
HETATM    6  C6  UNL     1     -32.794   7.066   2.934  1.00 20.00    -0.000 C 
ENDROOT
BRANCH   5   7
HETATM    7  C8  UNL     1     -35.207   5.634   5.652  1.00 20.00     0.000 C 
HETATM    8  C7  UNL     1     -34.185   5.099   6.599  1.00 20.00     0.005 C 
ENDBRANCH   5   7
BRANCH   6   9
HETATM    9  C9  UNL     1     -33.676   7.858   1.965  1.00 20.00     0.119 C 
HETATM   10 CL10 UNL     1     -32.787   8.187   0.469  1.00 20.00    -0.130 Cl
ENDBRANCH   6   9
TORSDOF 2
