REMARK  5 active torsions:
REMARK  status: ('A' for Active; 'I' for Inactive)
REMARK    1  A    between atoms: C3_3  and  C7_7 
REMARK    2  A    between atoms: C5_5  and  C6_6 
REMARK    3  A    between atoms: C5_5  and  C7_7 
REMARK    4  A    between atoms: C6_6  and  S9_9 
REMARK    5  A    between atoms: C7_7  and  O8_8 
ROOT
HETATM    1  C7  UNL     1     -32.965   6.649   4.577  1.00 20.00     0.122 C 
ENDROOT
BRANCH   1   2
HETATM    2  C3  UNL     1     -34.434   6.344   4.605  1.00 20.00     0.014 A 
HETATM    3  C1  UNL     1     -34.917   4.930   4.436  1.00 20.00     0.007 A 
HETATM    4  C2  UNL     1     -35.032   5.609   5.772  1.00 20.00     0.007 A 
ENDBRANCH   1   2
BRANCH   1   5
HETATM    5  C5  UNL     1     -32.405   6.818   3.158  1.00 20.00     0.042 C 
BRANCH   5   6
HETATM    6  C6  UNL     1     -33.094   7.867   2.285  1.00 20.00     0.076 C 
BRANCH   6   7
HETATM    7  S9  UNL     1     -32.376   7.993   0.621  1.00 20.00    -0.173 SA
HETATM    8  C4  UNL     1     -33.439   9.304  -0.024  1.00 20.00     0.089 C 
ENDBRANCH   6   7
ENDBRANCH   5   6
ENDBRANCH   1   5
BRANCH   1   9
HETATM    9  O8  UNL     1     -32.734   7.864   5.295  1.00 20.00    -0.395 OA
HETATM   10  H23 UNL     1     -33.045   7.708   6.199  1.00 20.00     0.210 HD
ENDBRANCH   1   9
TORSDOF 5
