REMARK  2 active torsions:
REMARK  status: ('A' for Active; 'I' for Inactive)
REMARK    1  A    between atoms: C5_5  and  C7_7 
REMARK    2  A    between atoms: C6_6  and  C8_8 
ROOT
HETATM    1  C1  UNL     1     -33.579   4.994   1.697  1.00 20.00     0.001 C 
HETATM    2  C2  UNL     1     -33.295   5.142   3.190  1.00 20.00     0.005 C 
HETATM    3  C3  UNL     1     -32.920   6.106   0.885  1.00 20.00     0.013 C 
HETATM    4  C4  UNL     1     -33.042   7.640   2.890  1.00 20.00     0.019 C 
HETATM    5  C5  UNL     1     -33.709   6.525   3.709  1.00 20.00    -0.000 C 
HETATM    6  C6  UNL     1     -33.332   7.495   1.390  1.00 20.00     0.094 C 
ENDROOT
BRANCH   6   7
HETATM    7  C8  UNL     1     -32.623   8.589   0.595  1.00 20.00     0.391 C 
HETATM    8  F9  UNL     1     -33.019   9.797   1.023  1.00 20.00    -0.171 F 
HETATM    9  F10 UNL     1     -31.295   8.485   0.754  1.00 20.00    -0.171 F 
HETATM   10  F11 UNL     1     -32.915   8.472  -0.709  1.00 20.00    -0.171 F 
ENDBRANCH   6   7
BRANCH   5  11
HETATM   11  C7  UNL     1     -33.370   6.668   5.192  1.00 20.00     0.119 C 
HETATM   12 CL12 UNL     1     -34.231   5.439   6.135  1.00 20.00    -0.130 Cl
ENDBRANCH   5  11
TORSDOF 2
