REMARK  2 active torsions:
REMARK  status: ('A' for Active; 'I' for Inactive)
REMARK    1  A    between atoms: C5_5  and  C6_6 
REMARK    2  A    between atoms: C6_6  and  S8_8 
ROOT
HETATM    1  C1  UNL     1     -34.480   4.457   4.079  1.00 20.00     0.027 C 
HETATM    2  C2  UNL     1     -33.389   5.163   3.280  1.00 20.00     0.009 C 
HETATM    3  C3  UNL     1     -34.408   4.846   5.549  1.00 20.00     0.167 C 
HETATM    4  C4  UNL     1     -33.397   6.933   5.061  1.00 20.00     0.172 C 
HETATM    5  C5  UNL     1     -33.411   6.672   3.553  1.00 20.00     0.019 C 
HETATM    6  O7  UNL     1     -34.484   6.262   5.701  1.00 20.00    -0.391 OA
ENDROOT
BRANCH   5   7
HETATM    7  C6  UNL     1     -32.248   7.374   2.861  1.00 20.00     0.077 C 
BRANCH   7   8
HETATM    8  S8  UNL     1     -32.629   7.646   1.112  1.00 20.00    -0.182 SA
HETATM    9  H20 UNL     1     -31.472   8.249   0.802  1.00 20.00     0.101 HD
ENDBRANCH   7   8
ENDBRANCH   5   7
TORSDOF 2
