REMARK  2 active torsions:
REMARK  status: ('A' for Active; 'I' for Inactive)
REMARK    1  A    between atoms: C1_1  and  C7_7 
REMARK    2  A    between atoms: C8_8  and  C10_10 
ROOT
HETATM    1  C2  UNL     1     -32.644   7.304   4.228  1.00 20.00     0.001 C 
HETATM    2  C3  UNL     1     -34.084   6.799   4.297  1.00 20.00     0.011 C 
HETATM    3  C4  UNL     1     -33.225   4.950   2.668  1.00 20.00     0.012 C 
HETATM    4  C5  UNL     1     -32.203   7.842   2.861  1.00 20.00     0.004 C 
HETATM    5  C6  UNL     1     -32.908   5.808   1.444  1.00 20.00     0.005 C 
HETATM    6  C7  UNL     1     -34.356   5.475   3.557  1.00 20.00     0.047 C 
HETATM    7  C8  UNL     1     -32.970   7.329   1.634  1.00 20.00    -0.015 C 
ENDROOT
BRANCH   6   8
HETATM    8  C1  UNL     1     -34.671   4.418   4.577  1.00 20.00     0.235 C 
HETATM    9  O11 UNL     1     -34.176   4.393   5.699  1.00 20.00    -0.306 OA
ENDBRANCH   6   8
BRANCH   7  10
HETATM   10  C10 UNL     1     -32.449   8.024   0.370  1.00 20.00     0.000 C 
HETATM   11  C9  UNL     1     -32.556   9.507   0.479  1.00 20.00     0.005 C 
ENDBRANCH   7  10
TORSDOF 2
