REMARK  2 active torsions:
REMARK  status: ('A' for Active; 'I' for Inactive)
REMARK    1  A    between atoms: C1_1  and  C5_5 
REMARK    2  A    between atoms: C6_6  and  C8_8 
ROOT
HETATM    1  C2  UNL     1     -33.430   7.134   4.346  1.00 20.00     0.012 C 
HETATM    2  C3  UNL     1     -32.026   7.343   3.793  1.00 20.00     0.005 C 
HETATM    3  C4  UNL     1     -33.204   6.039   2.161  1.00 20.00     0.016 C 
HETATM    4  C5  UNL     1     -34.068   6.101   3.422  1.00 20.00     0.047 C 
HETATM    5  C6  UNL     1     -32.189   7.180   2.284  1.00 20.00    -0.014 C 
ENDROOT
BRANCH   4   6
HETATM    6  C1  UNL     1     -34.038   4.750   4.111  1.00 20.00     0.235 C 
HETATM    7  O9  UNL     1     -35.043   4.085   4.339  1.00 20.00    -0.306 OA
ENDBRANCH   4   6
BRANCH   5   8
HETATM    8  C8  UNL     1     -32.685   8.460   1.613  1.00 20.00     0.000 C 
HETATM    9  C7  UNL     1     -32.898   8.276   0.143  1.00 20.00     0.005 C 
ENDBRANCH   5   8
TORSDOF 2
