REMARK  0 active torsions:
REMARK  status: ('A' for Active; 'I' for Inactive)
ROOT
HETATM    1  C1  UNL     1     -33.387   6.922   2.791  1.00 20.00     0.066 C 
HETATM    2  C2  UNL     1     -34.159   4.479   4.354  1.00 20.00     0.038 C 
HETATM    3  C3  UNL     1     -33.291   4.659   5.599  1.00 20.00     0.273 C 
HETATM    4  C4  UNL     1     -33.220   7.048   5.292  1.00 20.00     0.292 C 
HETATM    5  C5  UNL     1     -35.194   5.953   5.856  1.00 20.00     0.278 C 
HETATM    6  C6  UNL     1     -34.125   6.998   4.054  1.00 20.00     0.127 C 
HETATM    7  C7  UNL     1     -34.990   5.768   4.360  1.00 20.00     0.035 C 
HETATM    8  N8  UNL     1     -32.803   6.861   1.790  1.00 20.00    -0.197 NA
HETATM    9  N9  UNL     1     -33.740   5.959   6.172  1.00 20.00     0.090 N 
ENDROOT
TORSDOF 0
