REMARK  2 active torsions:
REMARK  status: ('A' for Active; 'I' for Inactive)
REMARK    1  A    between atoms: C5_5  and  C6_6 
REMARK    2  A    between atoms: C6_6  and  S8_8 
ROOT
HETATM    1  C1  UNL     1     -34.589   6.570   6.162  1.00 20.00     0.027 C 
HETATM    2  C2  UNL     1     -33.376   7.091   5.398  1.00 20.00     0.009 C 
HETATM    3  C3  UNL     1     -34.952   5.165   5.703  1.00 20.00     0.167 C 
HETATM    4  C4  UNL     1     -34.002   5.502   3.558  1.00 20.00     0.172 C 
HETATM    5  C5  UNL     1     -33.583   6.938   3.887  1.00 20.00     0.019 C 
HETATM    6  O7  UNL     1     -35.171   5.136   4.293  1.00 20.00    -0.391 OA
ENDROOT
BRANCH   5   7
HETATM    7  C6  UNL     1     -32.330   7.337   3.116  1.00 20.00     0.077 C 
BRANCH   7   8
HETATM    8  S8  UNL     1     -32.746   7.725   1.397  1.00 20.00    -0.182 SA
HETATM    9  H20 UNL     1     -31.499   8.022   1.007  1.00 20.00     0.101 HD
ENDBRANCH   7   8
ENDBRANCH   5   7
TORSDOF 2
