REMARK  4 active torsions:
REMARK  status: ('A' for Active; 'I' for Inactive)
REMARK    1  A    between atoms: C5_5  and  C7_7 
REMARK    2  A    between atoms: C5_5  and  C8_8 
REMARK    3  A    between atoms: C6_6  and  C7_7 
REMARK    4  A    between atoms: C8_8  and  O9_9 
ROOT
HETATM    1  C5  UNL     1     -33.134   5.483   3.009  1.00 20.00     0.042 C 
ENDROOT
BRANCH   1   2
HETATM    2  C7  UNL     1     -33.036   6.973   2.598  1.00 20.00    -0.002 C 
HETATM    3  C1  UNL     1     -32.000   7.676   3.488  1.00 20.00     0.011 C 
BRANCH   2   4
HETATM    4  C6  UNL     1     -32.745   7.236   1.113  1.00 20.00     0.119 C 
HETATM    5 CL10 UNL     1     -32.836   8.955   0.660  1.00 20.00    -0.130 Cl
ENDBRANCH   2   4
ENDBRANCH   1   2
BRANCH   1   6
HETATM    6  C8  UNL     1     -34.020   5.133   4.227  1.00 20.00     0.053 C 
HETATM    7  C2  UNL     1     -35.495   5.135   3.804  1.00 20.00     0.045 C 
HETATM    8  C3  UNL     1     -33.668   3.779   4.844  1.00 20.00     0.045 C 
BRANCH   6   9
HETATM    9  O9  UNL     1     -33.875   6.122   5.246  1.00 20.00    -0.386 OA
HETATM   10  C4  UNL     1     -34.697   5.833   6.366  1.00 20.00     0.202 C 
ENDBRANCH   6   9
ENDBRANCH   1   6
TORSDOF 4
