REMARK  2 active torsions:
REMARK  status: ('A' for Active; 'I' for Inactive)
REMARK    1  A    between atoms: C4_4  and  C8_8 
REMARK    2  A    between atoms: C5_5  and  C9_9 
ROOT
HETATM    1  C1  UNL     1     -32.714   5.309   2.409  1.00 20.00     0.032 C 
HETATM    2  C2  UNL     1     -33.595   6.358   4.521  1.00 20.00     0.043 C 
HETATM    3  C3  UNL     1     -33.885   4.343   2.489  1.00 20.00     0.169 C 
HETATM    4  C4  UNL     1     -33.009   6.628   3.127  1.00 20.00     0.004 C 
HETATM    5  C5  UNL     1     -34.652   5.234   4.597  1.00 20.00     0.057 C 
HETATM    6  C6  UNL     1     -34.751   4.756   6.057  1.00 20.00     0.046 C 
HETATM    7  O10 UNL     1     -34.244   4.086   3.843  1.00 20.00    -0.381 OA
ENDROOT
BRANCH   5   8
HETATM    8  C9  UNL     1     -36.053   5.692   4.171  1.00 20.00     0.033 C 
HETATM    9  C7  UNL     1     -37.040   4.578   4.261  1.00 20.00     0.008 C 
ENDBRANCH   5   8
BRANCH   4  10
HETATM   10  C8  UNL     1     -33.869   7.564   2.277  1.00 20.00     0.119 C 
HETATM   11 CL11 UNL     1     -32.861   8.404   1.086  1.00 20.00    -0.130 Cl
ENDBRANCH   4  10
TORSDOF 2
