REMARK  1 active torsions:
REMARK  status: ('A' for Active; 'I' for Inactive)
REMARK    1  A    between atoms: C6_6  and  C10_10 
ROOT
HETATM    1  C1  UNL     1     -33.516   4.329   2.734  1.00 20.00     0.001 C 
HETATM    2  C2  UNL     1     -33.146   5.617   2.003  1.00 20.00     0.005 C 
HETATM    3  C3  UNL     1     -33.370   7.489   3.706  1.00 20.00     0.006 C 
HETATM    4  C4  UNL     1     -33.674   4.359   4.252  1.00 20.00     0.008 C 
HETATM    5  C5  UNL     1     -33.807   6.794   4.994  1.00 20.00     0.009 C 
HETATM    6  C6  UNL     1     -32.407   6.683   2.820  1.00 20.00    -0.001 C 
HETATM    7  C7  UNL     1     -34.569   5.454   4.873  1.00 20.00    -0.048 C 
HETATM    8  C8  UNL     1     -35.897   5.622   4.119  1.00 20.00     0.015 C 
HETATM    9  C9  UNL     1     -34.911   5.004   6.316  1.00 20.00     0.015 C 
ENDROOT
BRANCH   6  10
HETATM   10  C10 UNL     1     -31.699   7.647   1.856  1.00 20.00     0.119 C 
HETATM   11 CL11 UNL     1     -32.889   8.418   0.797  1.00 20.00    -0.130 Cl
ENDBRANCH   6  10
TORSDOF 1
