REMARK  4 active torsions:
REMARK  status: ('A' for Active; 'I' for Inactive)
REMARK    1  A    between atoms: C2_2  and  C8_8 
REMARK    2  A    between atoms: C5_5  and  C9_9 
REMARK    3  A    between atoms: C8_8  and  N10_10 
REMARK    4  A    between atoms: C9_9  and  N10_10 
ROOT
HETATM    1  C1  UNL     1     -33.164   8.694   1.056  1.00 20.00    -0.109 C 
HETATM    2  C2  UNL     1     -32.704   8.073   1.976  1.00 20.00    -0.077 C 
HETATM    3  C7  UNL     1     -33.723   9.449  -0.064  1.00 20.00     0.112 C 
ENDROOT
BRANCH   2   4
HETATM    4  C8  UNL     1     -32.137   7.319   3.097  1.00 20.00     0.362 C 
BRANCH   4   5
HETATM    5  N10 UNL     1     -33.173   6.538   3.781  1.00 20.00     0.094 N 
HETATM    6  H25 UNL     1     -32.827   6.309   4.723  1.00 20.00     0.317 HD
BRANCH   5   7
HETATM    7  C9  UNL     1     -33.508   5.350   3.063  1.00 20.00     0.275 C 
BRANCH   7   8
HETATM    8  C5  UNL     1     -34.591   4.577   3.799  1.00 20.00     0.018 C 
HETATM    9  C3  UNL     1     -34.234   4.106   5.228  1.00 20.00     0.041 C 
HETATM   10  C6  UNL     1     -35.190   5.163   5.815  1.00 20.00     0.161 C 
HETATM   11  C4  UNL     1     -35.738   5.424   4.398  1.00 20.00     0.041 C 
HETATM   12  O11 UNL     1     -34.520   6.272   6.361  1.00 20.00    -0.235 OA
ENDBRANCH   7   8
ENDBRANCH   5   7
ENDBRANCH   4   5
ENDBRANCH   2   4
TORSDOF 4
