REMARK  0 active torsions:
REMARK  status: ('A' for Active; 'I' for Inactive)
ROOT
HETATM    1  C1  UNL     1     -33.627   5.297   3.180  1.00 20.00    -0.085 C 
HETATM    2  C2  UNL     1     -32.932   4.662   2.229  1.00 20.00     0.014 C 
HETATM    3  C3  UNL     1     -33.302   6.674   3.698  1.00 20.00     0.034 C 
HETATM    4  C4  UNL     1     -33.696   6.823   5.181  1.00 20.00     0.009 C 
HETATM    5  C5  UNL     1     -34.461   4.373   5.376  1.00 20.00     0.013 C 
HETATM    6  C6  UNL     1     -35.855   5.610   4.386  1.00 20.00     0.013 C 
HETATM    7  C7  UNL     1     -34.769   4.608   3.863  1.00 20.00     0.014 C 
HETATM    8  C8  UNL     1     -34.849   5.875   5.549  1.00 20.00    -0.013 C 
ENDROOT
TORSDOF 0
