REMARK  2 active torsions:
REMARK  status: ('A' for Active; 'I' for Inactive)
REMARK    1  A    between atoms: C5_5  and  C6_6 
REMARK    2  A    between atoms: C6_6  and  C7_7 
ROOT
HETATM    1  C1  UNL     1     -32.960   8.780   0.538  1.00 20.00     0.012 C 
HETATM    2  C2  UNL     1     -32.739   8.098   1.501  1.00 20.00    -0.117 C 
HETATM    3  C5  UNL     1     -32.460   7.261   2.680  1.00 20.00     0.098 C 
ENDROOT
BRANCH   3   4
HETATM    4  C6  UNL     1     -33.670   6.383   3.066  1.00 20.00     0.006 C 
HETATM    5  C3  UNL     1     -33.794   5.188   2.106  1.00 20.00     0.012 C 
BRANCH   4   6
HETATM    6  C7  UNL     1     -33.620   5.874   4.525  1.00 20.00     0.058 C 
HETATM    7  C4  UNL     1     -34.624   4.788   4.883  1.00 20.00     0.022 C 
HETATM    8 BR8  UNL     1     -33.873   7.384   5.763  1.00 20.00    -0.091 Br
ENDBRANCH   4   6
ENDBRANCH   3   4
TORSDOF 2
