REMARK  3 active torsions:
REMARK  status: ('A' for Active; 'I' for Inactive)
REMARK    1  A    between atoms: C3_3  and  N7_7 
REMARK    2  A    between atoms: C5_5  and  C6_6 
REMARK    3  A    between atoms: C5_5  and  N7_7 
ROOT
HETATM    1  N7  UNL     1     -32.992   6.964   2.349  1.00 20.00     0.093 N 
HETATM    2  H20 UNL     1     -32.144   6.404   2.427  1.00 20.00     0.316 HD
ENDROOT
BRANCH   1   3
HETATM    3  C3  UNL     1     -32.653   8.277   1.821  1.00 20.00     0.223 C 
HETATM    4  C1  UNL     1     -32.006   8.116   0.428  1.00 20.00     0.055 C 
HETATM    5  C4  UNL     1     -32.898   9.303  -0.022  1.00 20.00     0.086 C 
HETATM    6  C2  UNL     1     -33.882   8.869   1.096  1.00 20.00     0.055 C 
HETATM    7 CL10 UNL     1     -33.479   9.352  -1.707  1.00 20.00    -0.125 Cl
ENDBRANCH   1   3
BRANCH   1   8
HETATM    8  C5  UNL     1     -33.616   7.075   3.660  1.00 20.00     0.340 C 
BRANCH   8   9
HETATM    9  C6  UNL     1     -33.952   5.703   4.207  1.00 20.00     0.381 C 
HETATM   10  F8  UNL     1     -34.852   5.090   3.398  1.00 20.00    -0.213 F 
HETATM   11  F9  UNL     1     -34.555   5.843   5.416  1.00 20.00    -0.213 F 
ENDBRANCH   8   9
ENDBRANCH   1   8
TORSDOF 3
