REMARK  3 active torsions:
REMARK  status: ('A' for Active; 'I' for Inactive)
REMARK    1  A    between atoms: C6_6  and  C8_8 
REMARK    2  A    between atoms: C6_6  and  C9_9 
REMARK    3  A    between atoms: C7_7  and  C9_9 
ROOT
HETATM    1  C4  UNL     1     -32.927   5.408   2.696  1.00 20.00     0.015 C 
HETATM    2  C5  UNL     1     -32.240   7.376   4.042  1.00 20.00     0.015 C 
HETATM    3  C9  UNL     1     -33.456   6.697   3.375  1.00 20.00    -0.043 C 
ENDROOT
BRANCH   3   4
HETATM    4  C6  UNL     1     -34.021   7.601   2.224  1.00 20.00     0.029 C 
BRANCH   4   5
HETATM    5  C8  UNL     1     -33.031   8.390   1.344  1.00 20.00     0.079 C 
HETATM    6  C3  UNL     1     -33.753   9.514   0.603  1.00 20.00     0.026 C 
HETATM    7 CL10 UNL     1     -32.240   7.349   0.125  1.00 20.00    -0.125 Cl
ENDBRANCH   4   5
ENDBRANCH   3   4
BRANCH   3   8
HETATM    8  C7  UNL     1     -34.544   6.364   4.463  1.00 20.00    -0.015 C 
HETATM    9  C1  UNL     1     -35.796   5.672   3.902  1.00 20.00     0.010 C 
HETATM   10  C2  UNL     1     -34.018   5.523   5.639  1.00 20.00     0.010 C 
ENDBRANCH   3   8
TORSDOF 3
