REMARK  4 active torsions:
REMARK  status: ('A' for Active; 'I' for Inactive)
REMARK    1  A    between atoms: C5_5  and  C7_7 
REMARK    2  A    between atoms: C5_5  and  C8_8 
REMARK    3  A    between atoms: C6_6  and  C8_8 
REMARK    4  A    between atoms: C6_6  and  C9_9 
ROOT
HETATM    1  C3  UNL     1     -32.376   7.333   4.123  1.00 20.00     0.010 C 
HETATM    2  C8  UNL     1     -32.849   7.054   2.694  1.00 20.00    -0.017 C 
ENDROOT
BRANCH   2   3
HETATM    3  C5  UNL     1     -32.675   8.293   1.782  1.00 20.00     0.008 C 
BRANCH   3   4
HETATM    4  C7  UNL     1     -32.711   8.035   0.262  1.00 20.00    -0.023 C 
HETATM    5  C1  UNL     1     -31.612   7.077  -0.198  1.00 20.00     0.009 C 
HETATM    6  C2  UNL     1     -32.583   9.365  -0.488  1.00 20.00     0.009 C 
ENDBRANCH   3   4
ENDBRANCH   2   3
BRANCH   2   7
HETATM    7  C6  UNL     1     -34.338   6.626   2.658  1.00 20.00     0.024 C 
BRANCH   7   8
HETATM    8  C9  UNL     1     -34.710   5.388   3.490  1.00 20.00     0.078 C 
HETATM    9  C4  UNL     1     -33.660   4.293   3.333  1.00 20.00     0.026 C 
HETATM   10 CL10 UNL     1     -34.860   5.796   5.224  1.00 20.00    -0.125 Cl
ENDBRANCH   7   8
ENDBRANCH   2   7
TORSDOF 4
