REMARK  3 active torsions:
REMARK  status: ('A' for Active; 'I' for Inactive)
REMARK    1  A    between atoms: C5_5  and  S11_11 
REMARK    2  A    between atoms: C7_7  and  C8_8 
REMARK    3  A    between atoms: C8_8  and  S11_11 
ROOT
HETATM    1  C1  UNL     1     -32.090   7.260   3.536  1.00 20.00     0.080 C 
HETATM    2  C2  UNL     1     -32.144   7.028   0.998  1.00 20.00     0.071 C 
HETATM    3  C3  UNL     1     -34.002   7.627   1.888  1.00 20.00     0.071 C 
HETATM    4  C4  UNL     1     -33.033   8.291   0.878  1.00 20.00     0.165 C 
HETATM    5  C5  UNL     1     -32.804   6.770   2.379  1.00 20.00     0.101 C 
HETATM    6  N9  UNL     1     -31.517   7.653   4.465  1.00 20.00    -0.196 NA
HETATM    7  O10 UNL     1     -33.590   8.461  -0.397  1.00 20.00    -0.235 OA
ENDROOT
BRANCH   5   8
HETATM    8  S11 UNL     1     -33.258   5.014   2.608  1.00 20.00    -0.144 SA
BRANCH   8   9
HETATM    9  C8  UNL     1     -34.710   5.265   3.652  1.00 20.00     0.075 C 
BRANCH   9  10
HETATM   10  C7  UNL     1     -34.290   5.559   5.088  1.00 20.00     0.006 C 
HETATM   11  C6  UNL     1     -35.504   5.778   5.979  1.00 20.00     0.006 C 
ENDBRANCH   9  10
ENDBRANCH   8   9
ENDBRANCH   5   8
TORSDOF 3
