REMARK  5 active torsions:
REMARK  status: ('A' for Active; 'I' for Inactive)
REMARK    1  A    between atoms: C2_2  and  C8_8 
REMARK    2  A    between atoms: C2_2  and  C9_9 
REMARK    3  A    between atoms: C3_3  and  C10_10 
REMARK    4  A    between atoms: C9_9  and  C10_10 
REMARK    5  A    between atoms: C10_10  and  C11_11 
ROOT
HETATM    1  C10 UNL     1     -33.242   6.085   3.616  1.00 20.00     0.062 C 
ENDROOT
BRANCH   1   2
HETATM    2  C3  UNL     1     -33.154   5.143   2.412  1.00 20.00     0.127 C 
HETATM    3  C4  UNL     1     -32.640   3.750   2.675  1.00 20.00     0.091 C 
HETATM    4  O12 UNL     1     -33.497   5.486   1.280  1.00 20.00    -0.298 OA
ENDBRANCH   1   2
BRANCH   1   5
HETATM    5  C9  UNL     1     -33.719   7.481   3.159  1.00 20.00     0.045 C 
BRANCH   5   6
HETATM    6  C2  UNL     1     -32.850   8.112   2.087  1.00 20.00    -0.089 C 
HETATM    7  C1  UNL     1     -31.548   7.797   1.985  1.00 20.00     0.014 C 
BRANCH   6   8
HETATM    8  C8  UNL     1     -33.478   9.109   1.139  1.00 20.00     0.029 C 
HETATM    9  C5  UNL     1     -32.494   9.668   0.122  1.00 20.00     0.010 C 
ENDBRANCH   6   8
ENDBRANCH   5   6
ENDBRANCH   1   5
BRANCH   1  10
HETATM   10  C11 UNL     1     -34.124   5.512   4.757  1.00 20.00    -0.011 C 
HETATM   11  C6  UNL     1     -35.566   5.190   4.356  1.00 20.00     0.010 C 
HETATM   12  C7  UNL     1     -34.123   6.426   5.988  1.00 20.00     0.010 C 
ENDBRANCH   1  10
TORSDOF 5
