REMARK  4 active torsions:
REMARK  status: ('A' for Active; 'I' for Inactive)
REMARK    1  A    between atoms: C3_3  and  C6_6 
REMARK    2  A    between atoms: C3_3  and  C7_7 
REMARK    3  A    between atoms: C6_6  and  C8_8 
REMARK    4  A    between atoms: C8_8  and  C9_9 
ROOT
HETATM    1  C1  UNL     1     -33.736   5.229   2.052  1.00 20.00     0.011 A 
HETATM    2  C2  UNL     1     -33.267   4.431   3.235  1.00 20.00     0.011 A 
HETATM    3  C3  UNL     1     -33.741   5.853   3.428  1.00 20.00    -0.028 A 
ENDROOT
BRANCH   3   4
HETATM    4  C6  UNL     1     -32.697   6.917   3.732  1.00 20.00     0.011 C 
BRANCH   4   5
HETATM    5  C8  UNL     1     -33.088   8.269   3.129  1.00 20.00     0.005 C 
BRANCH   5   6
HETATM    6  C9  UNL     1     -33.172   8.254   1.592  1.00 20.00    -0.023 C 
HETATM    7  C4  UNL     1     -31.812   7.870   1.002  1.00 20.00     0.009 C 
HETATM    8  C5  UNL     1     -33.621   9.598   1.018  1.00 20.00     0.009 C 
ENDBRANCH   5   6
ENDBRANCH   4   5
ENDBRANCH   3   4
BRANCH   3   9
HETATM    9  C7  UNL     1     -35.068   6.068   4.101  1.00 20.00     0.124 C 
HETATM   10 CL10 UNL     1     -34.865   6.243   5.861  1.00 20.00    -0.130 Cl
ENDBRANCH   3   9
TORSDOF 4
