REMARK  3 active torsions:
REMARK  status: ('A' for Active; 'I' for Inactive)
REMARK    1  A    between atoms: C5_5  and  C6_6 
REMARK    2  A    between atoms: C5_5  and  C7_7 
REMARK    3  A    between atoms: C6_6  and  O9_9 
ROOT
HETATM    1  C1  UNL     1     -34.518   4.895   4.245  1.00 20.00     0.091 C 
HETATM    2  C6  UNL     1     -34.581   6.363   4.267  1.00 20.00     0.227 C 
HETATM    3  N8  UNL     1     -34.470   3.736   4.228  1.00 20.00    -0.195 NA
ENDROOT
BRANCH   2   4
HETATM    4  C5  UNL     1     -34.418   6.977   2.870  1.00 20.00     0.050 C 
BRANCH   4   5
HETATM    5  C7  UNL     1     -32.965   7.142   2.383  1.00 20.00    -0.019 C 
HETATM    6  C2  UNL     1     -32.279   5.774   2.332  1.00 20.00     0.009 C 
HETATM    7  C3  UNL     1     -32.883   7.811   1.010  1.00 20.00     0.009 C 
ENDBRANCH   4   5
ENDBRANCH   2   4
BRANCH   2   8
HETATM    8  O9  UNL     1     -33.539   6.866   5.105  1.00 20.00    -0.376 OA
HETATM    9  C4  UNL     1     -33.896   6.783   6.475  1.00 20.00     0.203 C 
ENDBRANCH   2   8
TORSDOF 3
