REMARK  1 active torsions:
REMARK  status: ('A' for Active; 'I' for Inactive)
REMARK    1  A    between atoms: C7_7  and  C9_9 
ROOT
HETATM    1  C1  UNL     1     -33.834   5.847   6.090  1.00 20.00     0.005 C 
HETATM    2  C2  UNL     1     -34.046   7.053   5.163  1.00 20.00     0.006 C 
HETATM    3  C3  UNL     1     -35.600   5.390   4.560  1.00 20.00     0.010 C 
HETATM    4  C4  UNL     1     -33.522   4.295   4.139  1.00 20.00     0.015 C 
HETATM    5  C5  UNL     1     -34.463   4.687   5.297  1.00 20.00    -0.013 C 
HETATM    6  C6  UNL     1     -34.662   6.413   3.904  1.00 20.00    -0.005 C 
HETATM    7  C7  UNL     1     -33.637   5.497   3.162  1.00 20.00    -0.028 C 
HETATM    8  C8  UNL     1     -34.195   5.047   1.799  1.00 20.00     0.016 C 
ENDROOT
BRANCH   7   9
HETATM    9  C9  UNL     1     -32.274   6.156   2.914  1.00 20.00     0.124 C 
HETATM   10 CL10 UNL     1     -32.501   7.796   2.289  1.00 20.00    -0.130 Cl
ENDBRANCH   7   9
TORSDOF 1
