REMARK  3 active torsions:
REMARK  status: ('A' for Active; 'I' for Inactive)
REMARK    1  A    between atoms: C2_2  and  C9_9 
REMARK    2  A    between atoms: C2_2  and  C10_10 
REMARK    3  A    between atoms: C6_6  and  C9_9 
ROOT
HETATM    1  C3  UNL     1     -33.801   4.446   3.279  1.00 20.00     0.006 C 
HETATM    2  C4  UNL     1     -34.465   4.396   4.658  1.00 20.00     0.020 C 
HETATM    3  C5  UNL     1     -34.083   6.695   4.149  1.00 20.00     0.025 C 
HETATM    4  C6  UNL     1     -33.342   5.898   3.075  1.00 20.00    -0.009 C 
HETATM    5  C7  UNL     1     -34.101   5.721   5.317  1.00 20.00     0.082 C 
HETATM    6 CL11 UNL     1     -35.256   6.192   6.570  1.00 20.00    -0.125 Cl
ENDROOT
BRANCH   4   7
HETATM    7  C9  UNL     1     -33.598   6.416   1.669  1.00 20.00     0.038 C 
BRANCH   7   8
HETATM    8  C2  UNL     1     -32.764   7.629   1.327  1.00 20.00    -0.089 C 
HETATM    9  C1  UNL     1     -31.888   8.133   2.211  1.00 20.00     0.014 C 
BRANCH   8  10
HETATM   10  C10 UNL     1     -32.939   8.262  -0.035  1.00 20.00     0.029 C 
HETATM   11  C8  UNL     1     -34.008   9.345  -0.055  1.00 20.00     0.010 C 
ENDBRANCH   8  10
ENDBRANCH   7   8
ENDBRANCH   4   7
TORSDOF 3
