REMARK  4 active torsions:
REMARK  status: ('A' for Active; 'I' for Inactive)
REMARK    1  A    between atoms: C3_3  and  C6_6 
REMARK    2  A    between atoms: C3_3  and  C7_7 
REMARK    3  A    between atoms: C6_6  and  C9_9 
REMARK    4  A    between atoms: C8_8  and  C9_9 
ROOT
HETATM    1  C1  UNL     1     -34.625   4.303   4.095  1.00 20.00     0.011 A 
HETATM    2  C2  UNL     1     -33.245   4.503   4.655  1.00 20.00     0.011 A 
HETATM    3  C3  UNL     1     -34.218   5.659   4.624  1.00 20.00    -0.027 A 
ENDROOT
BRANCH   3   4
HETATM    4  C6  UNL     1     -33.971   6.773   3.616  1.00 20.00     0.015 C 
BRANCH   4   5
HETATM    5  C9  UNL     1     -32.597   6.691   2.918  1.00 20.00    -0.018 C 
HETATM    6  C5  UNL     1     -31.476   7.223   3.815  1.00 20.00     0.010 C 
BRANCH   5   7
HETATM    7  C8  UNL     1     -32.669   7.459   1.582  1.00 20.00    -0.000 C 
HETATM    8  C4  UNL     1     -32.958   8.946   1.741  1.00 20.00     0.005 C 
ENDBRANCH   5   7
ENDBRANCH   4   5
ENDBRANCH   3   4
BRANCH   3   9
HETATM    9  C7  UNL     1     -34.813   6.116   5.927  1.00 20.00     0.124 C 
HETATM   10 CL10 UNL     1     -33.819   7.398   6.662  1.00 20.00    -0.130 Cl
ENDBRANCH   3   9
TORSDOF 4
