REMARK  5 active torsions:
REMARK  status: ('A' for Active; 'I' for Inactive)
REMARK    1  A    between atoms: C4_4  and  C5_5 
REMARK    2  A    between atoms: C4_4  and  C8_8 
REMARK    3  A    between atoms: C5_5  and  O9_9 
REMARK    4  A    between atoms: C6_6  and  C8_8 
REMARK    5  A    between atoms: C7_7  and  C8_8 
ROOT
HETATM    1  C8  UNL     1     -33.077   6.105   4.171  1.00 20.00     0.005 C 
ENDROOT
BRANCH   1   2
HETATM    2  C4  UNL     1     -32.209   7.088   3.345  1.00 20.00     0.032 C 
BRANCH   2   3
HETATM    3  C5  UNL     1     -32.965   7.854   2.263  1.00 20.00     0.167 C 
BRANCH   3   4
HETATM    4  O9  UNL     1     -32.056   8.727   1.604  1.00 20.00    -0.396 OA
HETATM    5  C3  UNL     1     -32.697   9.462   0.571  1.00 20.00     0.201 C 
ENDBRANCH   3   4
ENDBRANCH   2   3
ENDBRANCH   1   2
BRANCH   1   6
HETATM    6  C6  UNL     1     -34.161   6.829   4.997  1.00 20.00     0.119 C 
HETATM    7 CL10 UNL     1     -34.812   5.840   6.327  1.00 20.00    -0.130 Cl
ENDBRANCH   1   6
BRANCH   1   8
HETATM    8  C7  UNL     1     -33.654   4.962   3.270  1.00 20.00    -0.017 C 
HETATM    9  C1  UNL     1     -32.665   4.526   2.178  1.00 20.00     0.010 C 
HETATM   10  C2  UNL     1     -34.050   3.720   4.080  1.00 20.00     0.010 C 
ENDBRANCH   1   8
TORSDOF 5
