REMARK  2 active torsions:
REMARK  status: ('A' for Active; 'I' for Inactive)
REMARK    1  A    between atoms: C5_5  and  C6_6 
REMARK    2  A    between atoms: C6_6  and  O8_8 
ROOT
HETATM    1  C1  UNL     1     -33.125   6.580   3.535  1.00 20.00     0.097 C 
HETATM    2  C3  UNL     1     -35.544   6.148   3.614  1.00 20.00     0.062 C 
HETATM    3  C6  UNL     1     -34.164   5.703   4.107  1.00 20.00     0.144 C 
HETATM    4  N7  UNL     1     -32.308   7.270   3.084  1.00 20.00    -0.194 NA
ENDROOT
BRANCH   3   5
HETATM    5  C5  UNL     1     -34.126   5.725   5.647  1.00 20.00     0.049 C 
HETATM    6  C2  UNL     1     -34.355   7.105   6.260  1.00 20.00     0.009 C 
ENDBRANCH   3   5
BRANCH   3   7
HETATM    7  O8  UNL     1     -33.950   4.361   3.668  1.00 20.00    -0.371 OA
HETATM    8  C4  UNL     1     -33.555   4.321   2.306  1.00 20.00     0.204 C 
ENDBRANCH   3   7
TORSDOF 2
