REMARK  4 active torsions:
REMARK  status: ('A' for Active; 'I' for Inactive)
REMARK    1  A    between atoms: C4_4  and  C7_7 
REMARK    2  A    between atoms: C4_4  and  C8_8 
REMARK    3  A    between atoms: C7_7  and  C9_9 
REMARK    4  A    between atoms: C9_9  and  C10_10 
ROOT
HETATM    1  C1  UNL     1     -34.203   3.630   3.793  1.00 20.00     0.002 C 
HETATM    2  C2  UNL     1     -33.164   4.396   2.952  1.00 20.00     0.010 C 
HETATM    3  C3  UNL     1     -35.020   4.934   3.879  1.00 20.00     0.010 C 
HETATM    4  C4  UNL     1     -33.713   5.719   3.564  1.00 20.00    -0.028 C 
ENDROOT
BRANCH   4   5
HETATM    5  C7  UNL     1     -33.892   6.844   2.551  1.00 20.00     0.011 C 
BRANCH   5   6
HETATM    6  C9  UNL     1     -32.560   7.232   1.906  1.00 20.00     0.005 C 
BRANCH   6   7
HETATM    7  C10 UNL     1     -32.696   8.317   0.822  1.00 20.00    -0.023 C 
HETATM    8  C5  UNL     1     -33.291   9.588   1.432  1.00 20.00     0.009 C 
HETATM    9  C6  UNL     1     -33.555   7.860  -0.358  1.00 20.00     0.009 C 
ENDBRANCH   6   7
ENDBRANCH   5   6
ENDBRANCH   4   5
BRANCH   4  10
HETATM   10  C8  UNL     1     -32.955   6.197   4.804  1.00 20.00     0.124 C 
HETATM   11 CL11 UNL     1     -33.955   7.331   5.727  1.00 20.00    -0.130 Cl
ENDBRANCH   4  10
TORSDOF 4
