REMARK  3 active torsions:
REMARK  status: ('A' for Active; 'I' for Inactive)
REMARK    1  A    between atoms: C6_6  and  C8_8 
REMARK    2  A    between atoms: C7_7  and  C8_8 
REMARK    3  A    between atoms: C7_7  and  C9_9 
ROOT
HETATM    1  C8  UNL     1     -33.439   5.909   2.726  1.00 20.00     0.042 C 
ENDROOT
BRANCH   1   2
HETATM    2  C6  UNL     1     -34.140   6.321   4.006  1.00 20.00     0.122 C 
HETATM    3  C2  UNL     1     -34.730   5.152   4.777  1.00 20.00     0.034 C 
HETATM    4  C1  UNL     1     -34.745   5.697   6.183  1.00 20.00     0.029 C 
HETATM    5  C5  UNL     1     -33.453   6.485   6.227  1.00 20.00     0.168 C 
HETATM    6  O10 UNL     1     -33.202   6.953   4.894  1.00 20.00    -0.386 OA
ENDBRANCH   1   2
BRANCH   1   7
HETATM    7  C7  UNL     1     -32.898   7.087   1.977  1.00 20.00    -0.025 A 
HETATM    8  C3  UNL     1     -31.571   7.658   2.418  1.00 20.00     0.011 A 
HETATM    9  C4  UNL     1     -31.660   6.884   1.135  1.00 20.00     0.011 A 
BRANCH   7  10
HETATM   10  C9  UNL     1     -33.944   8.043   1.473  1.00 20.00     0.124 C 
HETATM   11 CL11 UNL     1     -33.208   9.316   0.470  1.00 20.00    -0.130 Cl
ENDBRANCH   7  10
ENDBRANCH   1   7
TORSDOF 3
