REMARK  2 active torsions:
REMARK  status: ('A' for Active; 'I' for Inactive)
REMARK    1  A    between atoms: C5_5  and  O9_9 
REMARK    2  A    between atoms: C7_7  and  O9_9 
ROOT
HETATM    1  C1  UNL     1     -34.014   6.212   5.396  1.00 20.00     0.098 C 
HETATM    2  C2  UNL     1     -34.151   3.651   3.826  1.00 20.00     0.008 C 
HETATM    3  C3  UNL     1     -32.848   4.453   3.994  1.00 20.00     0.054 C 
HETATM    4  C4  UNL     1     -34.833   4.950   3.358  1.00 20.00     0.054 C 
HETATM    5  C5  UNL     1     -33.699   5.753   4.057  1.00 20.00     0.148 C 
HETATM    6  N8  UNL     1     -34.265   6.579   6.467  1.00 20.00    -0.194 NA
ENDROOT
BRANCH   5   7
HETATM    7  O9  UNL     1     -33.180   6.869   3.307  1.00 20.00    -0.366 OA
BRANCH   7   8
HETATM    8  C7  UNL     1     -32.855   6.478   1.988  1.00 20.00     0.165 C 
HETATM    9  C6  UNL     1     -32.314   7.676   1.237  1.00 20.00     0.033 C 
ENDBRANCH   7   8
ENDBRANCH   5   7
TORSDOF 2
