REMARK  5 active torsions:
REMARK  status: ('A' for Active; 'I' for Inactive)
REMARK    1  A    between atoms: C2_2  and  C5_5 
REMARK    2  A    between atoms: C2_2  and  C6_6 
REMARK    3  A    between atoms: C6_6  and  C7_7 
REMARK    4  A    between atoms: C7_7  and  C9_9 
REMARK    5  A    between atoms: C8_8  and  C9_9 
ROOT
HETATM    1  C6  UNL     1     -32.007   7.037   3.038  1.00 20.00     0.033 C 
ENDROOT
BRANCH   1   2
HETATM    2  C2  UNL     1     -32.371   7.306   1.589  1.00 20.00    -0.090 C 
HETATM    3  C1  UNL     1     -32.364   6.379   0.616  1.00 20.00     0.014 C 
BRANCH   2   4
HETATM    4  C5  UNL     1     -32.733   8.740   1.260  1.00 20.00     0.029 C 
HETATM    5  C3  UNL     1     -33.057   8.945  -0.213  1.00 20.00     0.010 C 
ENDBRANCH   2   4
ENDBRANCH   1   2
BRANCH   1   6
HETATM    6  C7  UNL     1     -33.158   6.663   3.987  1.00 20.00     0.009 C 
BRANCH   6   7
HETATM    7  C9  UNL     1     -33.946   5.417   3.526  1.00 20.00    -0.004 C 
HETATM    8  C4  UNL     1     -33.072   4.160   3.481  1.00 20.00     0.011 C 
BRANCH   7   9
HETATM    9  C8  UNL     1     -35.206   5.196   4.382  1.00 20.00     0.119 C 
HETATM   10 CL10 UNL     1     -34.856   4.786   6.079  1.00 20.00    -0.130 Cl
ENDBRANCH   7   9
ENDBRANCH   6   7
ENDBRANCH   1   6
TORSDOF 5
