REMARK  3 active torsions:
REMARK  status: ('A' for Active; 'I' for Inactive)
REMARK    1  A    between atoms: C1_1  and  C6_6 
REMARK    2  A    between atoms: C5_5  and  C6_6 
REMARK    3  A    between atoms: C6_6  and  O8_8 
ROOT
HETATM    1  C4  UNL     1     -33.507   4.277   4.941  1.00 20.00     0.054 C 
HETATM    2  C6  UNL     1     -34.420   5.389   4.421  1.00 20.00     0.110 C 
ENDROOT
BRANCH   2   3
HETATM    3  C1  UNL     1     -34.807   6.287   5.588  1.00 20.00     0.268 C 
HETATM    4  O7  UNL     1     -34.097   6.485   6.570  1.00 20.00    -0.304 OA
ENDBRANCH   2   3
BRANCH   2   5
HETATM    5  C5  UNL     1     -33.782   6.198   3.261  1.00 20.00     0.018 C 
HETATM    6  C2  UNL     1     -33.399   5.354   2.041  1.00 20.00     0.013 C 
HETATM    7  C3  UNL     1     -32.564   7.015   3.720  1.00 20.00     0.013 C 
ENDBRANCH   2   5
BRANCH   2   8
HETATM    8  O8  UNL     1     -35.614   4.782   3.929  1.00 20.00    -0.383 OA
HETATM    9  H20 UNL     1     -35.988   4.275   4.666  1.00 20.00     0.211 HD
ENDBRANCH   2   8
TORSDOF 3
