REMARK  1 active torsions:
REMARK  status: ('A' for Active; 'I' for Inactive)
REMARK    1  A    between atoms: C6_6  and  O9_9 
ROOT
HETATM    1  C1  UNL     1     -35.973   5.424   4.129  1.00 20.00     0.098 C 
HETATM    2  C2  UNL     1     -32.747   4.451   2.539  1.00 20.00     0.004 C 
HETATM    3  C3  UNL     1     -33.064   5.767   1.828  1.00 20.00     0.004 C 
HETATM    4  C4  UNL     1     -33.956   4.144   3.421  1.00 20.00     0.053 C 
HETATM    5  C5  UNL     1     -34.428   6.220   2.352  1.00 20.00     0.053 C 
HETATM    6  C6  UNL     1     -34.576   5.512   3.696  1.00 20.00     0.148 C 
HETATM    7  N8  UNL     1     -37.079   5.354   4.473  1.00 20.00    -0.194 NA
ENDROOT
BRANCH   6   8
HETATM    8  O9  UNL     1     -33.807   6.209   4.673  1.00 20.00    -0.370 OA
HETATM    9  C7  UNL     1     -34.184   5.846   5.995  1.00 20.00     0.204 C 
ENDBRANCH   6   8
TORSDOF 1
