REMARK  5 active torsions:
REMARK  status: ('A' for Active; 'I' for Inactive)
REMARK    1  A    between atoms: C2_2  and  C8_8 
REMARK    2  A    between atoms: C2_2  and  C9_9 
REMARK    3  A    between atoms: C6_6  and  C10_10 
REMARK    4  A    between atoms: C9_9  and  C10_10 
REMARK    5  A    between atoms: C10_10  and  O11_11 
ROOT
HETATM    1  C10 UNL     1     -33.628   5.959   2.958  1.00 20.00     0.126 C 
ENDROOT
BRANCH   1   2
HETATM    2  C6  UNL     1     -33.569   5.727   4.453  1.00 20.00     0.015 C 
HETATM    3  C4  UNL     1     -34.598   4.727   5.042  1.00 20.00     0.007 C 
HETATM    4  C3  UNL     1     -34.683   5.653   6.273  1.00 20.00     0.001 C 
HETATM    5  C5  UNL     1     -34.234   6.804   5.349  1.00 20.00     0.007 C 
ENDBRANCH   1   2
BRANCH   1   6
HETATM    6  C9  UNL     1     -32.506   6.915   2.534  1.00 20.00     0.065 C 
BRANCH   6   7
HETATM    7  C2  UNL     1     -32.737   7.544   1.171  1.00 20.00    -0.087 C 
HETATM    8  C1  UNL     1     -32.227   6.965   0.071  1.00 20.00     0.014 C 
BRANCH   7   9
HETATM    9  C8  UNL     1     -33.587   8.799   1.164  1.00 20.00     0.029 C 
HETATM   10  C7  UNL     1     -33.874   9.436  -0.191  1.00 20.00     0.010 C 
ENDBRANCH   7   9
ENDBRANCH   6   7
ENDBRANCH   1   6
BRANCH   1  11
HETATM   11  O11 UNL     1     -33.444   4.707   2.302  1.00 20.00    -0.395 OA
HETATM   12  H29 UNL     1     -33.486   4.885   1.350  1.00 20.00     0.210 HD
ENDBRANCH   1  11
TORSDOF 5
