REMARK  3 active torsions:
REMARK  status: ('A' for Active; 'I' for Inactive)
REMARK    1  A    between atoms: C5_5  and  C8_8 
REMARK    2  A    between atoms: C5_5  and  C9_9 
REMARK    3  A    between atoms: C8_8  and  C10_10 
ROOT
HETATM    1  C1  UNL     1     -32.871   7.532   5.211  1.00 20.00     0.001 C 
HETATM    2  C2  UNL     1     -34.229   6.852   5.382  1.00 20.00     0.001 C 
HETATM    3  C3  UNL     1     -32.195   6.840   4.030  1.00 20.00     0.010 C 
HETATM    4  C4  UNL     1     -34.310   5.783   4.295  1.00 20.00     0.010 C 
HETATM    5  C5  UNL     1     -33.344   6.254   3.199  1.00 20.00    -0.028 C 
ENDROOT
BRANCH   5   6
HETATM    6  C8  UNL     1     -33.992   7.326   2.307  1.00 20.00     0.014 C 
BRANCH   6   7
HETATM    7  C10 UNL     1     -32.982   8.332   1.737  1.00 20.00    -0.022 C 
HETATM    8  C6  UNL     1     -31.912   7.663   0.874  1.00 20.00     0.009 C 
HETATM    9  C7  UNL     1     -33.722   9.391   0.915  1.00 20.00     0.009 C 
ENDBRANCH   6   7
ENDBRANCH   5   6
BRANCH   5  10
HETATM   10  C9  UNL     1     -32.871   5.090   2.326  1.00 20.00     0.124 C 
HETATM   11 CL11 UNL     1     -34.255   4.093   1.857  1.00 20.00    -0.130 Cl
ENDBRANCH   5  10
TORSDOF 3
