REMARK  3 active torsions:
REMARK  status: ('A' for Active; 'I' for Inactive)
REMARK    1  A    between atoms: C6_6  and  C8_8 
REMARK    2  A    between atoms: C7_7  and  C8_8 
REMARK    3  A    between atoms: C7_7  and  C9_9 
ROOT
HETATM    1  C8  UNL     1     -32.606   6.781   3.838  1.00 20.00     0.042 C 
ENDROOT
BRANCH   1   2
HETATM    2  C6  UNL     1     -33.764   7.104   4.772  1.00 20.00     0.122 C 
HETATM    3  C2  UNL     1     -33.509   6.662   6.206  1.00 20.00     0.034 C 
HETATM    4  C1  UNL     1     -34.107   5.277   6.239  1.00 20.00     0.029 C 
HETATM    5  C5  UNL     1     -35.299   5.432   5.322  1.00 20.00     0.168 C 
HETATM    6  O10 UNL     1     -34.924   6.385   4.319  1.00 20.00    -0.386 OA
ENDBRANCH   1   2
BRANCH   1   7
HETATM    7  C7  UNL     1     -33.036   6.737   2.404  1.00 20.00    -0.025 A 
HETATM    8  C3  UNL     1     -33.600   7.999   1.794  1.00 20.00     0.011 A 
HETATM    9  C4  UNL     1     -32.230   7.527   1.398  1.00 20.00     0.011 A 
BRANCH   7  10
HETATM   10  C9  UNL     1     -33.616   5.421   1.965  1.00 20.00     0.124 C 
HETATM   11 CL11 UNL     1     -32.490   4.086   2.309  1.00 20.00    -0.130 Cl
ENDBRANCH   7  10
ENDBRANCH   1   7
TORSDOF 3
