REMARK  4 active torsions:
REMARK  status: ('A' for Active; 'I' for Inactive)
REMARK    1  A    between atoms: C6_6  and  C8_8 
REMARK    2  A    between atoms: C6_6  and  C9_9 
REMARK    3  A    between atoms: C7_7  and  O11_11 
REMARK    4  A    between atoms: C9_9  and  O11_11 
ROOT
HETATM    1  C1  UNL     1     -33.570   5.682   2.312  1.00 20.00     0.097 C 
HETATM    2  C5  UNL     1     -31.610   6.946   3.086  1.00 20.00     0.062 C 
HETATM    3  C9  UNL     1     -33.131   6.965   2.890  1.00 20.00     0.145 C 
HETATM    4  N10 UNL     1     -33.915   4.673   1.854  1.00 20.00    -0.194 NA
ENDROOT
BRANCH   3   5
HETATM    5  C6  UNL     1     -33.519   8.158   1.988  1.00 20.00     0.057 C 
BRANCH   5   6
HETATM    6  C8  UNL     1     -32.588   8.479   0.792  1.00 20.00    -0.019 C 
HETATM    7  C3  UNL     1     -32.526   7.262  -0.140  1.00 20.00     0.009 C 
HETATM    8  C4  UNL     1     -33.017   9.708  -0.008  1.00 20.00     0.009 C 
ENDBRANCH   5   6
ENDBRANCH   3   5
BRANCH   3   9
HETATM    9  O11 UNL     1     -33.720   7.142   4.178  1.00 20.00    -0.366 OA
BRANCH   9  10
HETATM   10  C7  UNL     1     -33.739   5.926   4.908  1.00 20.00     0.165 C 
HETATM   11  C2  UNL     1     -34.373   6.173   6.261  1.00 20.00     0.033 C 
ENDBRANCH   9  10
ENDBRANCH   3   9
TORSDOF 4
