REMARK  5 active torsions:
REMARK  status: ('A' for Active; 'I' for Inactive)
REMARK    1  A    between atoms: C5_5  and  C6_6 
REMARK    2  A    between atoms: C6_6  and  C9_9 
REMARK    3  A    between atoms: C7_7  and  O11_11 
REMARK    4  A    between atoms: C8_8  and  C9_9 
REMARK    5  A    between atoms: C8_8  and  O11_11 
ROOT
HETATM    1  C1  UNL     1     -32.988   5.106   2.710  1.00 20.00     0.091 C 
HETATM    2  C8  UNL     1     -33.514   6.403   3.162  1.00 20.00     0.231 C 
HETATM    3  N10 UNL     1     -32.576   4.083   2.351  1.00 20.00    -0.195 NA
ENDROOT
BRANCH   2   4
HETATM    4  C9  UNL     1     -32.714   7.608   2.617  1.00 20.00     0.024 C 
HETATM    5  C4  UNL     1     -31.266   7.633   3.133  1.00 20.00     0.014 C 
BRANCH   4   6
HETATM    6  C6  UNL     1     -32.714   7.712   1.076  1.00 20.00     0.007 C 
BRANCH   6   7
HETATM    7  C5  UNL     1     -32.136   9.027   0.548  1.00 20.00    -0.004 C 
HETATM    8  C2  UNL     1     -32.871  10.227   1.127  1.00 20.00     0.005 C 
ENDBRANCH   6   7
ENDBRANCH   4   6
ENDBRANCH   2   4
BRANCH   2   9
HETATM    9  O11 UNL     1     -33.499   6.455   4.589  1.00 20.00    -0.372 OA
BRANCH   9  10
HETATM   10  C7  UNL     1     -34.607   5.763   5.141  1.00 20.00     0.165 C 
HETATM   11  C3  UNL     1     -34.541   5.849   6.651  1.00 20.00     0.033 C 
ENDBRANCH   9  10
ENDBRANCH   2   9
TORSDOF 5
