REMARK  4 active torsions:
REMARK  status: ('A' for Active; 'I' for Inactive)
REMARK    1  A    between atoms: C2_2  and  C9_9 
REMARK    2  A    between atoms: C2_2  and  C10_10 
REMARK    3  A    between atoms: C3_3  and  C5_5 
REMARK    4  A    between atoms: C3_3  and  C9_9 
ROOT
HETATM    1  C3  UNL     1     -33.177   5.380   2.641  1.00 20.00     0.135 C 
HETATM    2  O11 UNL     1     -32.833   4.284   2.216  1.00 20.00    -0.297 OA
ENDROOT
BRANCH   1   3
HETATM    3  C5  UNL     1     -34.552   5.563   3.193  1.00 20.00     0.060 A 
HETATM    4  C4  UNL     1     -35.004   4.665   4.300  1.00 20.00     0.017 A 
HETATM    5  C6  UNL     1     -34.741   6.120   4.570  1.00 20.00    -0.007 A 
HETATM    6  C7  UNL     1     -33.603   6.522   5.445  1.00 20.00     0.011 C 
ENDBRANCH   1   3
BRANCH   1   7
HETATM    7  C9  UNL     1     -32.314   6.628   2.623  1.00 20.00     0.111 C 
BRANCH   7   8
HETATM    8  C2  UNL     1     -32.440   7.363   1.314  1.00 20.00    -0.083 C 
HETATM    9  C1  UNL     1     -32.105   6.776   0.154  1.00 20.00     0.014 C 
BRANCH   8  10
HETATM   10  C10 UNL     1     -32.950   8.785   1.351  1.00 20.00     0.029 C 
HETATM   11  C8  UNL     1     -33.025   9.417  -0.032  1.00 20.00     0.010 C 
ENDBRANCH   8  10
ENDBRANCH   7   8
ENDBRANCH   1   7
TORSDOF 4
