REMARK  4 active torsions:
REMARK  status: ('A' for Active; 'I' for Inactive)
REMARK    1  A    between atoms: C3_3  and  C5_5 
REMARK    2  A    between atoms: C3_3  and  C6_6 
REMARK    3  A    between atoms: C5_5  and  C7_7 
REMARK    4  A    between atoms: C7_7  and  O8_8 
ROOT
HETATM    1  C1  UNL     1     -35.343   5.112   4.040  1.00 20.00     0.011 A 
HETATM    2  C2  UNL     1     -34.525   4.199   4.907  1.00 20.00     0.011 A 
HETATM    3  C3  UNL     1     -33.883   5.415   4.281  1.00 20.00    -0.026 A 
ENDROOT
BRANCH   3   4
HETATM    4  C5  UNL     1     -32.921   5.197   3.145  1.00 20.00     0.037 C 
BRANCH   4   5
HETATM    5  C7  UNL     1     -33.232   6.086   1.944  1.00 20.00     0.167 C 
BRANCH   5   6
HETATM    6  O8  UNL     1     -33.143   7.450   2.332  1.00 20.00    -0.396 OA
HETATM    7  C4  UNL     1     -32.987   8.303   1.206  1.00 20.00     0.201 C 
ENDBRANCH   5   6
ENDBRANCH   4   5
ENDBRANCH   3   4
BRANCH   3   8
HETATM    8  C6  UNL     1     -33.541   6.572   5.178  1.00 20.00     0.124 C 
HETATM    9 CL9  UNL     1     -34.649   6.644   6.569  1.00 20.00    -0.130 Cl
ENDBRANCH   3   8
TORSDOF 4
