REMARK  5 active torsions:
REMARK  status: ('A' for Active; 'I' for Inactive)
REMARK    1  A    between atoms: C2_2  and  C7_7 
REMARK    2  A    between atoms: C2_2  and  C8_8 
REMARK    3  A    between atoms: C3_3  and  C10_10 
REMARK    4  A    between atoms: C8_8  and  C10_10 
REMARK    5  A    between atoms: C9_9  and  C10_10 
ROOT
HETATM    1  C10 UNL     1     -33.480   6.119   3.079  1.00 20.00     0.058 C 
ENDROOT
BRANCH   1   2
HETATM    2  C3  UNL     1     -34.321   5.829   4.324  1.00 20.00     0.127 C 
HETATM    3  C4  UNL     1     -33.948   6.570   5.582  1.00 20.00     0.091 C 
HETATM    4  O11 UNL     1     -35.243   5.014   4.323  1.00 20.00    -0.298 OA
ENDBRANCH   1   2
BRANCH   1   5
HETATM    5  C8  UNL     1     -34.035   7.312   2.275  1.00 20.00     0.045 C 
BRANCH   5   6
HETATM    6  C2  UNL     1     -33.013   7.991   1.381  1.00 20.00    -0.089 C 
HETATM    7  C1  UNL     1     -31.731   7.589   1.376  1.00 20.00     0.014 C 
BRANCH   6   8
HETATM    8  C7  UNL     1     -33.462   9.137   0.502  1.00 20.00     0.029 C 
HETATM    9  C5  UNL     1     -32.335   9.730  -0.332  1.00 20.00     0.010 C 
ENDBRANCH   6   8
ENDBRANCH   5   6
ENDBRANCH   1   5
BRANCH   1  10
HETATM   10  C9  UNL     1     -33.336   4.845   2.227  1.00 20.00     0.008 C 
HETATM   11  C6  UNL     1     -32.764   3.637   2.958  1.00 20.00     0.006 C 
ENDBRANCH   1  10
TORSDOF 5
