REMARK  2 active torsions:
REMARK  status: ('A' for Active; 'I' for Inactive)
REMARK    1  A    between atoms: C6_6  and  O10_10 
REMARK    2  A    between atoms: C8_8  and  O10_10 
ROOT
HETATM    1  C1  UNL     1     -33.278   5.221   2.980  1.00 20.00     0.098 C 
HETATM    2  C2  UNL     1     -35.357   5.214   5.281  1.00 20.00     0.004 C 
HETATM    3  C3  UNL     1     -34.131   5.904   5.880  1.00 20.00     0.004 C 
HETATM    4  C4  UNL     1     -35.528   5.794   3.878  1.00 20.00     0.053 C 
HETATM    5  C5  UNL     1     -33.620   6.866   4.809  1.00 20.00     0.053 C 
HETATM    6  C6  UNL     1     -34.140   6.299   3.490  1.00 20.00     0.148 C 
HETATM    7  N9  UNL     1     -32.599   4.370   2.578  1.00 20.00    -0.194 NA
ENDROOT
BRANCH   6   8
HETATM    8  O10 UNL     1     -34.232   7.333   2.522  1.00 20.00    -0.366 OA
BRANCH   8   9
HETATM    9  C8  UNL     1     -32.957   7.885   2.221  1.00 20.00     0.165 C 
HETATM   10  C7  UNL     1     -33.124   8.978   1.187  1.00 20.00     0.033 C 
ENDBRANCH   8   9
ENDBRANCH   6   8
TORSDOF 2
