REMARK  4 active torsions:
REMARK  status: ('A' for Active; 'I' for Inactive)
REMARK    1  A    between atoms: C6_6  and  C8_8 
REMARK    2  A    between atoms: C6_6  and  C9_9 
REMARK    3  A    between atoms: C7_7  and  O11_11 
REMARK    4  A    between atoms: C8_8  and  O11_11 
ROOT
HETATM    1  C1  UNL     1     -31.999   7.510   3.836  1.00 20.00     0.091 C 
HETATM    2  C8  UNL     1     -32.553   6.594   2.825  1.00 20.00     0.228 C 
HETATM    3  N10 UNL     1     -31.561   8.231   4.634  1.00 20.00    -0.195 NA
ENDROOT
BRANCH   2   4
HETATM    4  C6  UNL     1     -34.070   6.439   3.021  1.00 20.00     0.055 C 
BRANCH   4   5
HETATM    5  C9  UNL     1     -34.543   5.415   4.095  1.00 20.00    -0.048 C 
HETATM    6  C3  UNL     1     -36.085   5.380   4.067  1.00 20.00     0.014 C 
HETATM    7  C4  UNL     1     -34.023   4.003   3.777  1.00 20.00     0.014 C 
HETATM    8  C5  UNL     1     -34.097   5.808   5.512  1.00 20.00     0.014 C 
ENDBRANCH   4   5
ENDBRANCH   2   4
BRANCH   2   9
HETATM    9  O11 UNL     1     -32.291   7.125   1.530  1.00 20.00    -0.372 OA
BRANCH   9  10
HETATM   10  C7  UNL     1     -32.885   8.404   1.363  1.00 20.00     0.165 C 
HETATM   11  C2  UNL     1     -32.574   8.914  -0.028  1.00 20.00     0.033 C 
ENDBRANCH   9  10
ENDBRANCH   2   9
TORSDOF 4
