REMARK  4 active torsions:
REMARK  status: ('A' for Active; 'I' for Inactive)
REMARK    1  A    between atoms: C2_2  and  C9_9 
REMARK    2  A    between atoms: C2_2  and  C10_10 
REMARK    3  A    between atoms: C3_3  and  C5_5 
REMARK    4  A    between atoms: C3_3  and  C9_9 
ROOT
HETATM    1  C3  UNL     1     -32.385   7.101   2.277  1.00 20.00     0.135 C 
HETATM    2  O11 UNL     1     -31.407   7.640   2.779  1.00 20.00    -0.297 OA
ENDROOT
BRANCH   1   3
HETATM    3  C5  UNL     1     -32.891   7.566   0.952  1.00 20.00     0.060 A 
HETATM    4  C4  UNL     1     -31.899   7.988  -0.081  1.00 20.00     0.017 A 
HETATM    5  C6  UNL     1     -32.746   9.023   0.609  1.00 20.00    -0.007 A 
HETATM    6  C7  UNL     1     -33.839   9.713  -0.132  1.00 20.00     0.011 C 
ENDBRANCH   1   3
BRANCH   1   7
HETATM    7  C9  UNL     1     -33.186   5.984   2.920  1.00 20.00     0.111 C 
BRANCH   7   8
HETATM    8  C2  UNL     1     -33.698   6.388   4.279  1.00 20.00    -0.083 C 
HETATM    9  C1  UNL     1     -33.019   7.256   5.046  1.00 20.00     0.014 C 
BRANCH   8  10
HETATM   10  C10 UNL     1     -34.997   5.778   4.751  1.00 20.00     0.029 C 
HETATM   11  C8  UNL     1     -34.792   4.477   5.513  1.00 20.00     0.010 C 
ENDBRANCH   8  10
ENDBRANCH   7   8
ENDBRANCH   1   7
TORSDOF 4
