REMARK  5 active torsions:
REMARK  status: ('A' for Active; 'I' for Inactive)
REMARK    1  A    between atoms: C4_4  and  C7_7 
REMARK    2  A    between atoms: C4_4  and  C8_8 
REMARK    3  A    between atoms: C6_6  and  C9_9 
REMARK    4  A    between atoms: C8_8  and  N10_10 
REMARK    5  A    between atoms: C9_9  and  N10_10 
ROOT
HETATM    1  C1  UNL     1     -32.944   9.590   0.070  1.00 20.00     0.012 C 
HETATM    2  C2  UNL     1     -32.736   8.576   0.678  1.00 20.00    -0.116 C 
HETATM    3  C6  UNL     1     -32.478   7.332   1.419  1.00 20.00     0.123 C 
ENDROOT
BRANCH   3   4
HETATM    4  C9  UNL     1     -32.862   7.454   2.891  1.00 20.00     0.282 C 
BRANCH   4   5
HETATM    5  N10 UNL     1     -32.634   6.199   3.592  1.00 20.00     0.088 N 
HETATM    6  H25 UNL     1     -31.764   5.782   3.266  1.00 20.00     0.316 HD
BRANCH   5   7
HETATM    7  C8  UNL     1     -33.729   5.264   3.352  1.00 20.00     0.302 C 
BRANCH   7   8
HETATM    8  C4  UNL     1     -34.943   5.551   4.204  1.00 20.00    -0.062 C 
HETATM    9  C3  UNL     1     -36.122   5.860   3.638  1.00 20.00     0.016 C 
BRANCH   8  10
HETATM   10  C7  UNL     1     -34.800   5.483   5.708  1.00 20.00     0.030 C 
HETATM   11  C5  UNL     1     -34.403   6.816   6.326  1.00 20.00     0.010 C 
ENDBRANCH   8  10
ENDBRANCH   7   8
ENDBRANCH   5   7
ENDBRANCH   4   5
ENDBRANCH   3   4
TORSDOF 5
