REMARK  2 active torsions:
REMARK  status: ('A' for Active; 'I' for Inactive)
REMARK    1  A    between atoms: C5_5  and  O9_9 
REMARK    2  A    between atoms: C7_7  and  O9_9 
ROOT
HETATM    1  C1  UNL     1     -33.280   5.392   3.000  1.00 20.00     0.098 C 
HETATM    2  C2  UNL     1     -35.335   6.173   4.163  1.00 20.00     0.065 C 
HETATM    3  C3  UNL     1     -35.130   5.377   5.442  1.00 20.00     0.078 C 
HETATM    4  C4  UNL     1     -33.163   7.101   4.802  1.00 20.00     0.127 C 
HETATM    5  C5  UNL     1     -33.954   6.549   3.616  1.00 20.00     0.157 C 
HETATM    6  N8  UNL     1     -32.750   4.482   2.515  1.00 20.00    -0.194 NA
HETATM    7  S10 UNL     1     -33.718   6.167   6.262  1.00 20.00    -0.165 SA
ENDROOT
BRANCH   5   8
HETATM    8  O9  UNL     1     -34.098   7.557   2.621  1.00 20.00    -0.365 OA
BRANCH   8   9
HETATM    9  C7  UNL     1     -32.837   7.967   2.114  1.00 20.00     0.165 C 
HETATM   10  C6  UNL     1     -33.051   9.036   1.064  1.00 20.00     0.033 C 
ENDBRANCH   8   9
ENDBRANCH   5   8
TORSDOF 2
