REMARK  4 active torsions:
REMARK  status: ('A' for Active; 'I' for Inactive)
REMARK    1  A    between atoms: C4_4  and  C5_5 
REMARK    2  A    between atoms: C5_5  and  C7_7 
REMARK    3  A    between atoms: C6_6  and  O9_9 
REMARK    4  A    between atoms: C7_7  and  O9_9 
ROOT
HETATM    1  C1  UNL     1     -33.713   6.727   4.592  1.00 20.00     0.091 C 
HETATM    2  C7  UNL     1     -33.833   6.026   3.306  1.00 20.00     0.227 C 
HETATM    3  N8  UNL     1     -33.618   7.283   5.606  1.00 20.00    -0.195 NA
ENDROOT
BRANCH   2   4
HETATM    4  C5  UNL     1     -34.563   4.687   3.447  1.00 20.00     0.046 C 
BRANCH   4   5
HETATM    5  C4  UNL     1     -33.838   3.701   4.366  1.00 20.00    -0.001 C 
HETATM    6  C2  UNL     1     -34.578   2.376   4.452  1.00 20.00     0.005 C 
ENDBRANCH   4   5
ENDBRANCH   2   4
BRANCH   2   7
HETATM    7  O9  UNL     1     -32.530   5.756   2.792  1.00 20.00    -0.372 OA
BRANCH   7   8
HETATM    8  C6  UNL     1     -31.797   6.955   2.588  1.00 20.00     0.165 C 
HETATM    9  C3  UNL     1     -32.542   7.825   1.598  1.00 20.00     0.033 C 
ENDBRANCH   7   8
ENDBRANCH   2   7
TORSDOF 4
