REMARK  2 active torsions:
REMARK  status: ('A' for Active; 'I' for Inactive)
REMARK    1  A    between atoms: C4_4  and  C7_7 
REMARK    2  A    between atoms: C7_7  and  C8_8 
ROOT
HETATM    1  C1  UNL     1     -33.523   6.853   5.344  1.00 20.00     0.218 C 
HETATM    2  C2  UNL     1     -34.272   7.091   4.055  1.00 20.00     0.113 C 
HETATM    3  C3  UNL     1     -31.917   7.440   3.724  1.00 20.00     0.132 C 
HETATM    4  C4  UNL     1     -33.178   7.004   2.972  1.00 20.00    -0.020 C 
HETATM    5  C5  UNL     1     -33.035   5.558   2.466  1.00 20.00     0.017 C 
HETATM    6  N9  UNL     1     -32.175   7.062   5.087  1.00 20.00    -0.360 N 
HETATM    7  O10 UNL     1     -34.036   6.568   6.416  1.00 20.00    -0.274 OA
HETATM    8  H25 UNL     1     -31.448   6.959   5.787  1.00 20.00     0.162 HD
ENDROOT
BRANCH   4   9
HETATM    9  C7  UNL     1     -33.479   7.930   1.793  1.00 20.00     0.011 C 
BRANCH   9  10
HETATM   10  C8  UNL     1     -32.371   7.861   0.753  1.00 20.00    -0.004 C 
HETATM   11  C6  UNL     1     -32.681   8.765  -0.429  1.00 20.00     0.005 C 
ENDBRANCH   9  10
ENDBRANCH   4   9
TORSDOF 2
