REMARK  1 active torsions:
REMARK  status: ('A' for Active; 'I' for Inactive)
REMARK    1  A    between atoms: C3_3  and  C8_8 
ROOT
HETATM    1  C1  UNL     1     -34.137   5.915   5.146  1.00 20.00     0.218 C 
HETATM    2  C2  UNL     1     -33.422   7.131   4.612  1.00 20.00     0.109 C 
HETATM    3  C3  UNL     1     -33.719   7.076   3.107  1.00 20.00     0.021 C 
HETATM    4  C4  UNL     1     -33.844   5.564   2.815  1.00 20.00     0.029 C 
HETATM    5  C5  UNL     1     -32.504   4.871   2.529  1.00 20.00     0.038 C 
HETATM    6  C6  UNL     1     -34.821   5.293   1.669  1.00 20.00     0.038 C 
HETATM    7  N9  UNL     1     -34.378   5.068   4.070  1.00 20.00    -0.352 N 
HETATM    8  O10 UNL     1     -34.412   5.716   6.319  1.00 20.00    -0.274 OA
HETATM    9  H25 UNL     1     -34.878   4.188   4.155  1.00 20.00     0.163 HD
ENDROOT
BRANCH   3  10
HETATM   10  C8  UNL     1     -32.692   7.842   2.284  1.00 20.00     0.003 C 
HETATM   11  C7  UNL     1     -33.017   7.816   0.825  1.00 20.00     0.005 C 
ENDBRANCH   3  10
TORSDOF 1
