REMARK  1 active torsions:
REMARK  status: ('A' for Active; 'I' for Inactive)
REMARK    1  A    between atoms: C3_3  and  C8_8 
ROOT
HETATM    1  C1  UNL     1     -34.596   5.543   5.248  1.00 20.00     0.218 C 
HETATM    2  C2  UNL     1     -34.072   6.877   4.778  1.00 20.00     0.109 C 
HETATM    3  C3  UNL     1     -33.213   6.504   3.562  1.00 20.00     0.021 C 
HETATM    4  C4  UNL     1     -33.913   5.250   2.991  1.00 20.00     0.029 C 
HETATM    5  C5  UNL     1     -32.914   4.308   2.316  1.00 20.00     0.038 C 
HETATM    6  C6  UNL     1     -35.064   5.563   2.026  1.00 20.00     0.038 C 
HETATM    7  N9  UNL     1     -34.453   4.645   4.196  1.00 20.00    -0.352 N 
HETATM    8  O10 UNL     1     -35.086   5.323   6.345  1.00 20.00    -0.274 OA
HETATM    9  H25 UNL     1     -34.701   3.663   4.264  1.00 20.00     0.163 HD
ENDROOT
BRANCH   3  10
HETATM   10  C8  UNL     1     -33.026   7.670   2.602  1.00 20.00     0.003 C 
HETATM   11  C7  UNL     1     -32.152   7.305   1.445  1.00 20.00     0.005 C 
ENDBRANCH   3  10
TORSDOF 1
