REMARK  1 active torsions:
REMARK  status: ('A' for Active; 'I' for Inactive)
REMARK    1  A    between atoms: C4_4  and  C8_8 
ROOT
HETATM    1  C1  UNL     1     -36.285   5.874   3.465  1.00 20.00     0.218 C 
HETATM    2  C2  UNL     1     -35.096   6.743   3.134  1.00 20.00     0.114 C 
HETATM    3  C3  UNL     1     -34.598   5.351   5.045  1.00 20.00     0.088 C 
HETATM    4  C4  UNL     1     -33.917   6.032   3.834  1.00 20.00    -0.016 C 
HETATM    5  C5  UNL     1     -34.681   6.191   6.317  1.00 20.00     0.033 C 
HETATM    6  C6  UNL     1     -32.809   7.026   4.193  1.00 20.00     0.018 C 
HETATM    7  N9  UNL     1     -35.934   5.088   4.554  1.00 20.00    -0.356 N 
HETATM    8  O10 UNL     1     -37.360   5.898   2.886  1.00 20.00    -0.274 OA
HETATM    9  H25 UNL     1     -36.553   4.393   4.968  1.00 20.00     0.162 HD
ENDROOT
BRANCH   4  10
HETATM   10  C8  UNL     1     -33.325   4.959   2.896  1.00 20.00     0.007 C 
HETATM   11  C7  UNL     1     -32.822   5.559   1.626  1.00 20.00     0.006 C 
ENDBRANCH   4  10
TORSDOF 1
