REMARK  1 active torsions:
REMARK  status: ('A' for Active; 'I' for Inactive)
REMARK    1  A    between atoms: C5_5  and  C6_6 
ROOT
HETATM    1  C1  UNL     1     -33.289   4.769   2.449  1.00 20.00     0.218 C 
HETATM    2  C2  UNL     1     -34.227   5.795   1.865  1.00 20.00     0.110 C 
HETATM    3  C5  UNL     1     -33.637   7.139   2.334  1.00 20.00     0.026 C 
HETATM    4  C7  UNL     1     -32.951   6.775   3.674  1.00 20.00     0.030 C 
HETATM    5  C8  UNL     1     -33.963   6.845   4.831  1.00 20.00     0.038 C 
HETATM    6  C9  UNL     1     -31.730   7.626   4.028  1.00 20.00     0.038 C 
HETATM    7  N10 UNL     1     -32.568   5.392   3.460  1.00 20.00    -0.352 N 
HETATM    8  O11 UNL     1     -33.220   3.599   2.106  1.00 20.00    -0.274 OA
HETATM    9  H26 UNL     1     -31.843   4.924   3.997  1.00 20.00     0.163 HD
ENDROOT
BRANCH   3  10
HETATM   10  C6  UNL     1     -32.703   7.703   1.258  1.00 20.00    -0.008 A 
HETATM   11  C3  UNL     1     -33.266   8.507   0.125  1.00 20.00     0.005 A 
HETATM   12  C4  UNL     1     -32.445   9.178   1.191  1.00 20.00     0.005 A 
ENDBRANCH   3  10
TORSDOF 1
