REMARK  1 active torsions:
REMARK  status: ('A' for Active; 'I' for Inactive)
REMARK    1  A    between atoms: C3_3  and  C6_6 
ROOT
HETATM    1  C1  UNL     1     -33.864   7.270   4.953  1.00 20.00     0.131 A 
HETATM    2  C2  UNL     1     -34.653   5.946   6.512  1.00 20.00     0.166 A 
HETATM    3  C3  UNL     1     -33.937   6.105   4.218  1.00 20.00     0.005 A 
HETATM    4  N7  UNL     1     -34.275   7.181   6.268  1.00 20.00    -0.265 NA
HETATM    5  S8  UNL     1     -34.541   4.839   5.206  1.00 20.00    -0.085 SA
ENDROOT
BRANCH   3   6
HETATM    6  C6  UNL     1     -33.573   5.847   2.768  1.00 20.00     0.019 C 
HETATM    7  C4  UNL     1     -33.159   4.391   2.542  1.00 20.00     0.015 C 
HETATM    8  C5  UNL     1     -32.483   6.805   2.282  1.00 20.00     0.015 C 
ENDBRANCH   3   6
TORSDOF 1
