REMARK  4 active torsions:
REMARK  status: ('A' for Active; 'I' for Inactive)
REMARK    1  A    between atoms: C5_5  and  C6_6 
REMARK    2  A    between atoms: C6_6  and  S10_10 
REMARK    3  A    between atoms: C7_7  and  C8_8 
REMARK    4  A    between atoms: C7_7  and  S10_10 
ROOT
HETATM    1  C1  UNL     1     -33.415   5.154   2.771  1.00 20.00     0.074 C 
HETATM    2  C7  UNL     1     -33.401   6.180   3.828  1.00 20.00     0.157 C 
HETATM    3  N9  UNL     1     -33.422   4.343   1.941  1.00 20.00    -0.196 NA
ENDROOT
BRANCH   2   4
HETATM    4  C8  UNL     1     -34.456   5.926   4.934  1.00 20.00     0.005 C 
HETATM    5  C3  UNL     1     -34.151   6.765   6.184  1.00 20.00     0.011 C 
HETATM    6  C4  UNL     1     -34.623   4.455   5.337  1.00 20.00     0.011 C 
ENDBRANCH   2   4
BRANCH   2   7
HETATM    7  S10 UNL     1     -33.569   7.852   3.096  1.00 20.00    -0.149 SA
BRANCH   7   8
HETATM    8  C6  UNL     1     -32.509   7.598   1.658  1.00 20.00     0.075 C 
BRANCH   8   9
HETATM    9  C5  UNL     1     -32.813   8.633   0.580  1.00 20.00     0.006 C 
HETATM   10  C2  UNL     1     -31.923   8.433  -0.638  1.00 20.00     0.006 C 
ENDBRANCH   8   9
ENDBRANCH   7   8
ENDBRANCH   2   7
TORSDOF 4
