REMARK  0 active torsions:
REMARK  status: ('A' for Active; 'I' for Inactive)
ROOT
HETATM    1  C1  UNL     1     -33.698   5.052   2.148  1.00 20.00     0.010 A 
HETATM    2  C2  UNL     1     -33.202   5.904   1.159  1.00 20.00     0.019 A 
HETATM    3  C3  UNL     1     -32.906   7.693   2.783  1.00 20.00     0.026 A 
HETATM    4  C4  UNL     1     -33.785   5.531   3.445  1.00 20.00    -0.033 A 
HETATM    5  C5  UNL     1     -33.387   6.837   3.759  1.00 20.00    -0.049 A 
HETATM    6  C6  UNL     1     -32.810   7.215   1.474  1.00 20.00     0.011 A 
HETATM    7  C7  UNL     1     -33.609   7.129   5.211  1.00 20.00     0.041 C 
HETATM    8  C8  UNL     1     -33.726   5.706   5.781  1.00 20.00     0.030 C 
HETATM    9  C9  UNL     1     -34.304   4.824   4.660  1.00 20.00     0.116 C 
HETATM   10 CL10 UNL     1     -36.079   4.844   4.671  1.00 20.00    -0.120 Cl
HETATM   11 BR11 UNL     1     -32.152   8.347   0.109  1.00 20.00    -0.051 Br
ENDROOT
TORSDOF 0
