REMARK  0 active torsions:
REMARK  status: ('A' for Active; 'I' for Inactive)
ROOT
HETATM    1  C1  UNL     1     -35.812   5.720   4.146  1.00 20.00     0.080 C 
HETATM    2  C2  UNL     1     -33.392   7.078   2.692  1.00 20.00     0.013 C 
HETATM    3  C3  UNL     1     -33.706   7.034   4.183  1.00 20.00     0.036 C 
HETATM    4  C4  UNL     1     -32.669   5.783   2.368  1.00 20.00     0.076 C 
HETATM    5  C5  UNL     1     -34.375   5.682   4.470  1.00 20.00     0.093 C 
HETATM    6  C6  UNL     1     -34.179   5.259   5.925  1.00 20.00     0.043 C 
HETATM    7  N7  UNL     1     -36.943   5.750   3.891  1.00 20.00    -0.196 NA
HETATM    8  S8  UNL     1     -33.507   4.513   3.355  1.00 20.00    -0.144 SA
ENDROOT
TORSDOF 0
