REMARK  2 active torsions:
REMARK  status: ('A' for Active; 'I' for Inactive)
REMARK    1  A    between atoms: C3_3  and  C7_7 
REMARK    2  A    between atoms: C7_7  and  C8_8 
ROOT
HETATM    1  C1  UNL     1     -32.643   5.978   1.129  1.00 20.00     0.111 C 
HETATM    2  C2  UNL     1     -32.832   7.445   1.507  1.00 20.00     0.227 C 
HETATM    3  C3  UNL     1     -32.975   6.521   3.687  1.00 20.00     0.282 C 
HETATM    4  C4  UNL     1     -32.043   8.366   0.582  1.00 20.00     0.043 C 
HETATM    5  N9  UNL     1     -32.379   7.610   2.901  1.00 20.00     0.102 N 
HETATM    6  S10 UNL     1     -33.170   5.075   2.602  1.00 20.00    -0.132 SA
HETATM    7  H27 UNL     1     -31.365   7.496   2.921  1.00 20.00     0.317 HD
ENDROOT
BRANCH   3   8
HETATM    8  C7  UNL     1     -34.324   6.938   4.265  1.00 20.00     0.050 C 
BRANCH   8   9
HETATM    9  C8  UNL     1     -34.776   6.074   5.453  1.00 20.00    -0.020 C 
HETATM   10  C5  UNL     1     -34.923   4.599   5.079  1.00 20.00     0.009 C 
HETATM   11  C6  UNL     1     -33.779   6.219   6.606  1.00 20.00     0.009 C 
ENDBRANCH   8   9
ENDBRANCH   3   8
TORSDOF 2
