REMARK  1 active torsions:
REMARK  status: ('A' for Active; 'I' for Inactive)
REMARK    1  A    between atoms: C2_2  and  C6_6 
ROOT
HETATM    1  C1  UNL     1     -34.335   6.791   5.808  1.00 20.00     0.111 C 
HETATM    2  C2  UNL     1     -34.243   6.860   4.286  1.00 20.00     0.231 C 
HETATM    3  C3  UNL     1     -34.910   4.561   4.549  1.00 20.00     0.278 C 
HETATM    4  C4  UNL     1     -34.008   3.523   3.892  1.00 20.00     0.054 C 
HETATM    5  N7  UNL     1     -35.044   5.763   3.710  1.00 20.00     0.102 N 
HETATM    6  S8  UNL     1     -34.291   5.029   6.187  1.00 20.00    -0.132 SA
HETATM    7  H21 UNL     1     -36.035   6.040   3.639  1.00 20.00     0.317 HD
ENDROOT
BRANCH   2   8
HETATM    8  C6  UNL     1     -32.802   6.846   3.769  1.00 20.00     0.032 C 
HETATM    9  C5  UNL     1     -32.746   6.935   2.277  1.00 20.00     0.007 C 
ENDBRANCH   2   8
TORSDOF 1
