REMARK  1 active torsions:
REMARK  status: ('A' for Active; 'I' for Inactive)
REMARK    1  A    between atoms: C3_3  and  C7_7 
ROOT
HETATM    1  C1  UNL     1     -32.929   7.014   4.745  1.00 20.00     0.284 C 
HETATM    2  C2  UNL     1     -32.765   5.727   2.240  1.00 20.00     0.109 C 
HETATM    3  C3  UNL     1     -33.184   7.197   2.292  1.00 20.00     0.229 C 
HETATM    4  C4  UNL     1     -34.051   5.972   4.703  1.00 20.00     0.071 C 
HETATM    5  C5  UNL     1     -34.185   5.258   6.046  1.00 20.00     0.023 C 
HETATM    6  N8  UNL     1     -32.826   7.854   3.553  1.00 20.00     0.089 N 
HETATM    7  S9  UNL     1     -33.726   4.715   3.411  1.00 20.00    -0.161 SA
HETATM    8  H24 UNL     1     -33.431   8.681   3.684  1.00 20.00     0.316 HD
ENDROOT
BRANCH   3   9
HETATM    9  C7  UNL     1     -32.522   7.978   1.156  1.00 20.00     0.032 C 
HETATM   10  C6  UNL     1     -32.930   9.413   1.167  1.00 20.00     0.007 C 
ENDBRANCH   3   9
TORSDOF 1
