REMARK  1 active torsions:
REMARK  status: ('A' for Active; 'I' for Inactive)
REMARK    1  A    between atoms: C4_4  and  C7_7 
ROOT
HETATM    1  C1  UNL     1     -35.309   5.108   4.015  1.00 20.00     0.109 C 
HETATM    2  C2  UNL     1     -32.942   4.822   2.609  1.00 20.00     0.109 C 
HETATM    3  C3  UNL     1     -34.726   6.445   4.501  1.00 20.00     0.226 C 
HETATM    4  C4  UNL     1     -33.333   6.301   2.482  1.00 20.00     0.230 C 
HETATM    5  C5  UNL     1     -34.445   6.416   6.008  1.00 20.00     0.043 C 
HETATM    6  N8  UNL     1     -33.523   6.915   3.797  1.00 20.00     0.093 N 
HETATM    7  S9  UNL     1     -34.039   3.851   3.694  1.00 20.00    -0.165 SA
HETATM    8  H24 UNL     1     -33.576   7.934   3.690  1.00 20.00     0.316 HD
ENDROOT
BRANCH   4   9
HETATM    9  C7  UNL     1     -32.232   7.068   1.748  1.00 20.00     0.032 C 
HETATM   10  C6  UNL     1     -32.578   8.512   1.596  1.00 20.00     0.007 C 
ENDBRANCH   4   9
TORSDOF 1
