REMARK  1 active torsions:
REMARK  status: ('A' for Active; 'I' for Inactive)
REMARK    1  A    between atoms: C4_4  and  C5_5 
ROOT
HETATM    1  C3  UNL     1     -33.059   4.776   4.278  1.00 20.00     0.116 C 
HETATM    2  C5  UNL     1     -33.526   6.436   2.288  1.00 20.00     0.286 C 
HETATM    3  C6  UNL     1     -34.018   5.939   4.577  1.00 20.00     0.160 C 
HETATM    4  C7  UNL     1     -35.495   5.516   4.464  1.00 20.00     0.049 C 
HETATM    5  C8  UNL     1     -33.769   6.472   5.995  1.00 20.00     0.049 C 
HETATM    6  N9  UNL     1     -33.690   7.012   3.623  1.00 20.00     0.107 N 
HETATM    7  S10 UNL     1     -32.869   4.758   2.477  1.00 20.00    -0.131 SA
HETATM    8  H25 UNL     1     -32.802   7.427   3.908  1.00 20.00     0.318 HD
ENDROOT
BRANCH   2   9
HETATM    9  C4  UNL     1     -32.596   7.278   1.474  1.00 20.00     0.029 A 
HETATM   10  C1  UNL     1     -33.097   8.526   0.800  1.00 20.00     0.008 A 
HETATM   11  C2  UNL     1     -32.164   8.628   1.974  1.00 20.00     0.008 A 
ENDBRANCH   2   9
TORSDOF 1
