REMARK  1 active torsions:
REMARK  status: ('A' for Active; 'I' for Inactive)
REMARK    1  A    between atoms: C2_2  and  C8_8 
ROOT
HETATM    1  C1  UNL     1     -32.468   5.713   2.264  1.00 20.00     0.284 C 
HETATM    2  C2  UNL     1     -34.410   6.330   3.683  1.00 20.00     0.233 C 
HETATM    3  C3  UNL     1     -32.042   7.178   2.163  1.00 20.00     0.071 C 
HETATM    4  C4  UNL     1     -33.338   6.884   4.647  1.00 20.00     0.076 C 
HETATM    5  C5  UNL     1     -32.794   7.951   1.081  1.00 20.00     0.023 C 
HETATM    6  C6  UNL     1     -33.923   7.662   5.828  1.00 20.00     0.023 C 
HETATM    7  N9  UNL     1     -33.872   5.495   2.598  1.00 20.00     0.090 N 
HETATM    8  S10 UNL     1     -32.203   8.034   3.768  1.00 20.00    -0.156 SA
HETATM    9  H27 UNL     1     -34.436   5.650   1.745  1.00 20.00     0.316 HD
ENDROOT
BRANCH   2  10
HETATM   10  C8  UNL     1     -35.486   5.509   4.408  1.00 20.00     0.032 C 
HETATM   11  C7  UNL     1     -34.897   4.318   5.084  1.00 20.00     0.007 C 
ENDBRANCH   2  10
TORSDOF 1
