REMARK  2 active torsions:
REMARK  status: ('A' for Active; 'I' for Inactive)
REMARK    1  A    between atoms: C3_3  and  C6_6 
REMARK    2  A    between atoms: C6_6  and  C7_7 
ROOT
HETATM    1  C1  UNL     1     -34.468   6.517   4.601  1.00 20.00     0.285 C 
HETATM    2  C2  UNL     1     -34.631   5.213   3.821  1.00 20.00     0.073 C 
HETATM    3  C3  UNL     1     -32.536   6.729   3.242  1.00 20.00     0.282 C 
HETATM    4  C4  UNL     1     -34.210   3.983   4.618  1.00 20.00     0.023 C 
HETATM    5  N8  UNL     1     -33.046   6.870   4.609  1.00 20.00     0.098 N 
HETATM    6  S9  UNL     1     -33.518   5.443   2.404  1.00 20.00    -0.128 SA
HETATM    7  H24 UNL     1     -32.960   7.849   4.898  1.00 20.00     0.317 HD
ENDROOT
BRANCH   3   8
HETATM    8  C6  UNL     1     -32.615   8.040   2.464  1.00 20.00     0.046 C 
BRANCH   8   9
HETATM    9  C7  UNL     1     -32.597   7.795   0.957  1.00 20.00    -0.002 C 
HETATM   10  C5  UNL     1     -32.704   9.099   0.182  1.00 20.00     0.005 C 
ENDBRANCH   8   9
ENDBRANCH   3   8
TORSDOF 2
