REMARK  0 active torsions:
REMARK  status: ('A' for Active; 'I' for Inactive)
ROOT
HETATM    1  C1  UNL     1     -34.425   4.492   2.604  1.00 20.00     0.019 A 
HETATM    2  C2  UNL     1     -34.924   4.376   3.948  1.00 20.00     0.031 A 
HETATM    3  C3  UNL     1     -33.577   5.477   2.293  1.00 20.00     0.094 A 
HETATM    4  C4  UNL     1     -34.549   5.245   4.894  1.00 20.00     0.102 A 
HETATM    5  C5  UNL     1     -33.598   6.359   4.569  1.00 20.00     0.268 A 
HETATM    6  C6  UNL     1     -32.231   7.451   2.832  1.00 20.00     0.159 C 
HETATM    7  N7  UNL     1     -33.158   6.401   3.236  1.00 20.00    -0.328 N 
HETATM    8  O8  UNL     1     -33.256   7.154   5.443  1.00 20.00    -0.266 OA
HETATM    9 CL9  UNL     1     -35.132   5.126   6.508  1.00 20.00    -0.078 Cl
ENDROOT
TORSDOF 0
