REMARK  3 active torsions:
REMARK  status: ('A' for Active; 'I' for Inactive)
REMARK    1  A    between atoms: C4_4  and  C7_7 
REMARK    2  A    between atoms: C7_7  and  O10_10 
REMARK    3  A    between atoms: C8_8  and  O10_10 
ROOT
HETATM    1  C1  UNL     1     -33.639   6.632   4.786  1.00 20.00     0.071 C 
HETATM    2  C2  UNL     1     -34.011   4.246   4.061  1.00 20.00     0.028 A 
HETATM    3  C3  UNL     1     -35.178   5.050   3.567  1.00 20.00     0.028 A 
HETATM    4  C4  UNL     1     -33.820   5.703   3.701  1.00 20.00     0.070 A 
HETATM    5  N9  UNL     1     -33.493   7.380   5.660  1.00 20.00    -0.196 NA
ENDROOT
BRANCH   4   6
HETATM    6  C7  UNL     1     -33.064   6.027   2.444  1.00 20.00     0.192 C 
BRANCH   6   7
HETATM    7  O10 UNL     1     -33.484   7.295   1.952  1.00 20.00    -0.385 OA
BRANCH   7   8
HETATM    8  C8  UNL     1     -32.794   7.645   0.761  1.00 20.00     0.113 C 
HETATM    9  C5  UNL     1     -33.587   8.711   0.018  1.00 20.00     0.039 C 
HETATM   10  C6  UNL     1     -31.395   8.123   1.114  1.00 20.00     0.039 C 
ENDBRANCH   7   8
ENDBRANCH   6   7
ENDBRANCH   4   6
TORSDOF 3
