REMARK  4 active torsions:
REMARK  status: ('A' for Active; 'I' for Inactive)
REMARK    1  A    between atoms: C1_1  and  C4_4 
REMARK    2  A    between atoms: C1_1  and  O11_11 
REMARK    3  A    between atoms: C5_5  and  C8_8 
REMARK    4  A    between atoms: C8_8  and  C9_9 
ROOT
HETATM    1  C2  UNL     1     -32.302   6.498   2.830  1.00 20.00     0.019 C 
HETATM    2  C3  UNL     1     -34.193   6.460   1.849  1.00 20.00     0.019 C 
HETATM    3  C4  UNL     1     -33.369   5.397   2.617  1.00 20.00     0.086 C 
HETATM    4  C5  UNL     1     -32.854   7.182   1.554  1.00 20.00    -0.013 C 
ENDROOT
BRANCH   3   5
HETATM    5  C1  UNL     1     -34.000   4.867   3.853  1.00 20.00     0.262 C 
HETATM    6  O10 UNL     1     -34.109   3.675   4.109  1.00 20.00    -0.265 OA
BRANCH   5   7
HETATM    7  O11 UNL     1     -34.424   5.904   4.629  1.00 20.00    -0.326 OA
HETATM    8  C7  UNL     1     -35.055   5.533   5.859  1.00 20.00     0.213 C 
ENDBRANCH   5   7
ENDBRANCH   3   5
BRANCH   4   9
HETATM    9  C8  UNL     1     -32.886   8.696   1.554  1.00 20.00     0.004 C 
BRANCH   9  10
HETATM   10  C9  UNL     1     -33.835   9.243   0.486  1.00 20.00    -0.004 C 
HETATM   11  C6  UNL     1     -33.406   8.828  -0.912  1.00 20.00     0.005 C 
ENDBRANCH   9  10
ENDBRANCH   4   9
TORSDOF 4
