REMARK  0 active torsions:
REMARK  status: ('A' for Active; 'I' for Inactive)
ROOT
HETATM    1  C1  UNL     1     -33.223   7.036   2.833  1.00 20.00     0.125 C 
HETATM    2  C2  UNL     1     -34.115   4.659   3.050  1.00 20.00     0.074 A 
HETATM    3  C3  UNL     1     -34.431   4.809   5.254  1.00 20.00     0.167 A 
HETATM    4  C4  UNL     1     -33.742   5.904   3.500  1.00 20.00     0.156 A 
HETATM    5  C5  UNL     1     -34.562   3.947   4.189  1.00 20.00     0.059 A 
HETATM    6  N6  UNL     1     -32.796   7.965   2.285  1.00 20.00    -0.189 NA
HETATM    7  O7  UNL     1     -33.932   6.004   4.842  1.00 20.00    -0.310 OA
HETATM    8 CL8  UNL     1     -35.138   2.355   4.204  1.00 20.00    -0.082 Cl
ENDROOT
TORSDOF 0
