REMARK  1 active torsions:
REMARK  status: ('A' for Active; 'I' for Inactive)
REMARK    1  A    between atoms: C3_3  and  C7_7 
ROOT
HETATM    1  C1  UNL     1     -33.145   6.354   0.982  1.00 20.00     0.111 C 
HETATM    2  C2  UNL     1     -32.875   7.564   1.875  1.00 20.00     0.227 C 
HETATM    3  C3  UNL     1     -33.421   6.030   3.583  1.00 20.00     0.285 C 
HETATM    4  C4  UNL     1     -33.242   8.868   1.177  1.00 20.00     0.043 C 
HETATM    5  N8  UNL     1     -33.676   7.394   3.100  1.00 20.00     0.102 N 
HETATM    6  S9  UNL     1     -33.167   4.961   2.132  1.00 20.00    -0.131 SA
HETATM    7  H24 UNL     1     -33.409   8.080   3.804  1.00 20.00     0.317 HD
ENDROOT
BRANCH   3   8
HETATM    8  C7  UNL     1     -34.576   5.522   4.433  1.00 20.00     0.021 C 
HETATM    9  C5  UNL     1     -34.319   4.088   4.900  1.00 20.00     0.012 C 
HETATM   10  C6  UNL     1     -34.811   6.438   5.635  1.00 20.00     0.012 C 
ENDBRANCH   3   8
TORSDOF 1
