REMARK  3 active torsions:
REMARK  status: ('A' for Active; 'I' for Inactive)
REMARK    1  A    between atoms: C3_3  and  C6_6 
REMARK    2  A    between atoms: C6_6  and  C8_8 
REMARK    3  A    between atoms: C7_7  and  C8_8 
ROOT
HETATM    1  C1  UNL     1     -34.491   4.438   4.090  1.00 20.00     0.111 C 
HETATM    2  C2  UNL     1     -34.227   5.598   5.048  1.00 20.00     0.227 C 
HETATM    3  C3  UNL     1     -34.082   6.810   3.013  1.00 20.00     0.282 C 
HETATM    4  C4  UNL     1     -34.990   5.426   6.357  1.00 20.00     0.043 C 
HETATM    5  N9  UNL     1     -34.643   6.840   4.371  1.00 20.00     0.102 N 
HETATM    6  S10 UNL     1     -33.976   5.075   2.480  1.00 20.00    -0.132 SA
HETATM    7  H27 UNL     1     -35.661   6.833   4.293  1.00 20.00     0.317 HD
ENDROOT
BRANCH   3   8
HETATM    8  C6  UNL     1     -32.705   7.463   2.976  1.00 20.00     0.046 C 
BRANCH   8   9
HETATM    9  C8  UNL     1     -32.111   7.427   1.570  1.00 20.00     0.002 C 
BRANCH   9  10
HETATM   10  C7  UNL     1     -32.985   8.197   0.581  1.00 20.00    -0.004 C 
HETATM   11  C5  UNL     1     -33.154   9.649   0.999  1.00 20.00     0.005 C 
ENDBRANCH   9  10
ENDBRANCH   8   9
ENDBRANCH   3   8
TORSDOF 3
