REMARK  1 active torsions:
REMARK  status: ('A' for Active; 'I' for Inactive)
REMARK    1  A    between atoms: C2_2  and  C6_6 
ROOT
HETATM    1  C1  UNL     1     -33.418   7.134   5.091  1.00 20.00     0.111 C 
HETATM    2  C2  UNL     1     -34.229   6.477   3.977  1.00 20.00     0.231 C 
HETATM    3  C3  UNL     1     -32.278   6.974   2.719  1.00 20.00     0.278 C 
HETATM    4  C4  UNL     1     -32.711   7.846   1.546  1.00 20.00     0.054 C 
HETATM    5  N7  UNL     1     -33.275   5.929   2.994  1.00 20.00     0.102 N 
HETATM    6  S8  UNL     1     -32.082   7.981   4.220  1.00 20.00    -0.132 SA
HETATM    7  H21 UNL     1     -32.794   5.138   3.426  1.00 20.00     0.317 HD
ENDROOT
BRANCH   2   8
HETATM    8  C6  UNL     1     -35.126   5.369   4.517  1.00 20.00     0.032 C 
HETATM    9  C5  UNL     1     -34.338   4.304   5.207  1.00 20.00     0.007 C 
ENDBRANCH   2   8
TORSDOF 1
