REMARK  3 active torsions:
REMARK  status: ('A' for Active; 'I' for Inactive)
REMARK    1  A    between atoms: C3_3  and  C6_6 
REMARK    2  A    between atoms: C6_6  and  C8_8 
REMARK    3  A    between atoms: C7_7  and  C8_8 
ROOT
HETATM    1  C1  UNL     1     -34.991   4.094   4.367  1.00 20.00     0.285 C 
HETATM    2  C2  UNL     1     -35.149   5.301   5.294  1.00 20.00     0.073 C 
HETATM    3  C3  UNL     1     -33.690   5.599   3.105  1.00 20.00     0.282 C 
HETATM    4  C4  UNL     1     -34.290   5.207   6.551  1.00 20.00     0.023 C 
HETATM    5  N9  UNL     1     -33.720   4.242   3.655  1.00 20.00     0.098 N 
HETATM    6  S10 UNL     1     -34.585   6.687   4.262  1.00 20.00    -0.128 SA
HETATM    7  H27 UNL     1     -32.956   4.130   4.320  1.00 20.00     0.317 HD
ENDROOT
BRANCH   3   8
HETATM    8  C6  UNL     1     -32.254   6.063   2.924  1.00 20.00     0.046 C 
BRANCH   8   9
HETATM    9  C8  UNL     1     -32.192   7.486   2.372  1.00 20.00     0.002 C 
BRANCH   9  10
HETATM   10  C7  UNL     1     -32.911   7.590   1.027  1.00 20.00    -0.004 C 
HETATM   11  C5  UNL     1     -32.882   9.012   0.488  1.00 20.00     0.005 C 
ENDBRANCH   9  10
ENDBRANCH   8   9
ENDBRANCH   3   8
TORSDOF 3
