REMARK  2 active torsions:
REMARK  status: ('A' for Active; 'I' for Inactive)
REMARK    1  A    between atoms: C6_6  and  C8_8 
REMARK    2  A    between atoms: C8_8  and  O9_9 
ROOT
HETATM    1  C1  UNL     1     -35.033   5.937   5.468  1.00 20.00    -0.004 C 
HETATM    2  C2  UNL     1     -33.750   6.584   5.585  1.00 20.00    -0.003 C 
HETATM    3  C3  UNL     1     -35.663   5.849   4.289  1.00 20.00    -0.025 C 
HETATM    4  C4  UNL     1     -33.038   6.920   4.499  1.00 20.00    -0.003 C 
HETATM    5  C5  UNL     1     -35.072   6.413   3.023  1.00 20.00     0.054 C 
HETATM    6  C6  UNL     1     -33.545   6.672   3.099  1.00 20.00     0.060 C 
HETATM    7 BR10 UNL     1     -32.612   5.024   2.498  1.00 20.00    -0.079 Br
ENDROOT
BRANCH   6   8
HETATM    8  C8  UNL     1     -33.137   7.789   2.137  1.00 20.00     0.192 C 
BRANCH   8   9
HETATM    9  O9  UNL     1     -33.638   7.477   0.851  1.00 20.00    -0.394 OA
HETATM   10  C7  UNL     1     -33.298   8.476  -0.105  1.00 20.00     0.201 C 
ENDBRANCH   8   9
ENDBRANCH   6   8
TORSDOF 2
