REMARK  3 active torsions:
REMARK  status: ('A' for Active; 'I' for Inactive)
REMARK    1  A    between atoms: C1_1  and  C6_6 
REMARK    2  A    between atoms: C1_1  and  O9_9 
REMARK    3  A    between atoms: C7_7  and  O9_9 
ROOT
HETATM    1  C1  UNL     1     -33.412   6.298   2.965  1.00 20.00     0.274 C 
HETATM    2  O8  UNL     1     -33.462   5.350   2.190  1.00 20.00    -0.264 OA
ENDROOT
BRANCH   1   3
HETATM    3  C6  UNL     1     -32.705   7.613   2.684  1.00 20.00     0.154 C 
HETATM    4  C2  UNL     1     -31.277   7.570   3.227  1.00 20.00     0.033 C 
HETATM    5  S10 UNL     1     -32.662   7.862   0.876  1.00 20.00    -0.082 SA
ENDBRANCH   1   3
BRANCH   1   6
HETATM    6  O9  UNL     1     -33.976   6.333   4.213  1.00 20.00    -0.310 OA
BRANCH   6   7
HETATM    7  C7  UNL     1     -34.671   5.151   4.610  1.00 20.00     0.060 C 
HETATM    8  C3  UNL     1     -33.687   3.982   4.602  1.00 20.00     0.045 C 
HETATM    9  C4  UNL     1     -35.213   5.387   6.018  1.00 20.00     0.045 C 
HETATM   10  C5  UNL     1     -35.816   4.906   3.628  1.00 20.00     0.045 C 
ENDBRANCH   6   7
ENDBRANCH   1   6
TORSDOF 3
