REMARK  1 active torsions:
REMARK  status: ('A' for Active; 'I' for Inactive)
REMARK    1  A    between atoms: C3_3  and  C7_7 
ROOT
HETATM    1  C1  UNL     1     -32.646   7.275   4.842  1.00 20.00    -0.011 C 
HETATM    2  C2  UNL     1     -33.748   6.520   4.719  1.00 20.00    -0.015 C 
HETATM    3  C4  UNL     1     -31.653   7.478   3.735  1.00 20.00     0.040 C 
HETATM    4  C5  UNL     1     -34.090   5.770   3.462  1.00 20.00     0.047 C 
HETATM    5  C6  UNL     1     -32.911   5.661   2.487  1.00 20.00     0.017 C 
HETATM    6  C7  UNL     1     -32.118   6.963   2.368  1.00 20.00     0.058 C 
HETATM    7 BR10 UNL     1     -34.970   6.321   6.119  1.00 20.00    -0.056 Br
ENDROOT
BRANCH   6   8
HETATM    8  C3  UNL     1     -32.936   8.000   1.652  1.00 20.00     0.127 C 
HETATM    9  C8  UNL     1     -33.766   8.917   2.509  1.00 20.00     0.091 C 
HETATM   10  O9  UNL     1     -32.926   8.096   0.426  1.00 20.00    -0.298 OA
ENDBRANCH   6   8
TORSDOF 1
