REMARK  4 active torsions:
REMARK  status: ('A' for Active; 'I' for Inactive)
REMARK    1  A    between atoms: C2_2  and  C6_6 
REMARK    2  A    between atoms: C6_6  and  S10_10 
REMARK    3  A    between atoms: C7_7  and  C8_8 
REMARK    4  A    between atoms: C7_7  and  S10_10 
ROOT
HETATM    1  C6  UNL     1     -32.799   7.801   1.962  1.00 20.00     0.113 C 
ENDROOT
BRANCH   1   2
HETATM    2  C2  UNL     1     -32.765   8.126   0.481  1.00 20.00     0.087 A 
HETATM    3  C1  UNL     1     -33.847   8.994  -0.116  1.00 20.00     0.207 A 
HETATM    4  O9  UNL     1     -32.547   9.515   0.199  1.00 20.00    -0.375 OA
HETATM    5  C3  UNL     1     -31.992   7.202  -0.403  1.00 20.00     0.049 C 
ENDBRANCH   1   2
BRANCH   1   6
HETATM    6  S10 UNL     1     -33.965   6.460   2.292  1.00 20.00    -0.166 SA
BRANCH   6   7
HETATM    7  C7  UNL     1     -33.740   6.357   4.095  1.00 20.00     0.077 C 
BRANCH   7   8
HETATM    8  C8  UNL     1     -34.542   5.248   4.796  1.00 20.00    -0.013 C 
HETATM    9  C4  UNL     1     -34.191   3.849   4.284  1.00 20.00     0.010 C 
HETATM   10  C5  UNL     1     -34.426   5.307   6.320  1.00 20.00     0.010 C 
ENDBRANCH   7   8
ENDBRANCH   6   7
ENDBRANCH   1   6
TORSDOF 4
