REMARK  1 active torsions:
REMARK  status: ('A' for Active; 'I' for Inactive)
REMARK    1  A    between atoms: C2_2  and  O8_8 
ROOT
HETATM    1  C1  UNL     1     -33.673   5.404   2.241  1.00 20.00     0.053 C 
HETATM    2  C2  UNL     1     -33.788   5.487   3.780  1.00 20.00     0.131 C 
HETATM    3  C3  UNL     1     -32.708   6.608   2.302  1.00 20.00     0.095 C 
HETATM    4  C4  UNL     1     -33.379   6.996   3.665  1.00 20.00    -0.005 C 
HETATM    5  C5  UNL     1     -34.554   7.975   3.583  1.00 20.00     0.019 C 
HETATM    6  C6  UNL     1     -32.377   7.439   4.731  1.00 20.00     0.019 C 
HETATM    7 CL9  UNL     1     -32.690   7.758   0.927  1.00 20.00    -0.124 Cl
ENDROOT
BRANCH   2   8
HETATM    8  O8  UNL     1     -35.084   5.210   4.340  1.00 20.00    -0.390 OA
HETATM    9  C7  UNL     1     -35.059   5.318   5.750  1.00 20.00     0.202 C 
ENDBRANCH   2   8
TORSDOF 1
