REMARK  2 active torsions:
REMARK  status: ('A' for Active; 'I' for Inactive)
REMARK    1  A    between atoms: C3_3  and  O11_11 
REMARK    2  A    between atoms: C9_9  and  O11_11 
ROOT
HETATM    1  C1  UNL     1     -33.782   5.015   1.891  1.00 20.00     0.069 C 
HETATM    2  C2  UNL     1     -33.187   4.714   3.283  1.00 20.00     0.173 C 
HETATM    3  C3  UNL     1     -33.852   6.509   2.301  1.00 20.00     0.135 C 
HETATM    4  C4  UNL     1     -33.861   6.035   3.799  1.00 20.00     0.008 C 
HETATM    5  C5  UNL     1     -32.953   6.834   4.738  1.00 20.00     0.020 C 
HETATM    6  C6  UNL     1     -35.289   5.981   4.364  1.00 20.00     0.020 C 
HETATM    7  O10 UNL     1     -33.678   3.532   3.855  1.00 20.00    -0.234 OA
ENDROOT
BRANCH   3   8
HETATM    8  O11 UNL     1     -32.729   7.312   1.881  1.00 20.00    -0.380 OA
BRANCH   8   9
HETATM    9  C9  UNL     1     -33.032   8.013   0.692  1.00 20.00     0.114 C 
HETATM   10  C7  UNL     1     -33.669   9.348   1.046  1.00 20.00     0.039 C 
HETATM   11  C8  UNL     1     -31.760   8.189  -0.123  1.00 20.00     0.039 C 
ENDBRANCH   8   9
ENDBRANCH   3   8
TORSDOF 2
