REMARK  1 active torsions:
REMARK  status: ('A' for Active; 'I' for Inactive)
REMARK    1  A    between atoms: C6_6  and  O10_10 
ROOT
HETATM    1  C1  UNL     1     -32.592   7.859   2.618  1.00 20.00     0.001 C 
HETATM    2  C2  UNL     1     -34.006   7.624   2.114  1.00 20.00     0.001 C 
HETATM    3  C3  UNL     1     -32.317   6.651   3.510  1.00 20.00     0.013 C 
HETATM    4  C4  UNL     1     -34.727   7.148   3.368  1.00 20.00     0.013 C 
HETATM    5  C5  UNL     1     -34.686   4.816   5.336  1.00 20.00     0.053 C 
HETATM    6  C6  UNL     1     -33.809   6.060   5.610  1.00 20.00     0.132 C 
HETATM    7  C7  UNL     1     -33.949   4.681   3.986  1.00 20.00     0.095 C 
HETATM    8  C8  UNL     1     -33.696   6.235   4.051  1.00 20.00     0.003 C 
HETATM    9 CL11 UNL     1     -34.814   3.935   2.606  1.00 20.00    -0.124 Cl
ENDROOT
BRANCH   6  10
HETATM   10  O10 UNL     1     -34.412   7.126   6.364  1.00 20.00    -0.390 OA
HETATM   11  C9  UNL     1     -33.503   8.196   6.541  1.00 20.00     0.202 C 
ENDBRANCH   6  10
TORSDOF 1
