REMARK  3 active torsions:
REMARK  status: ('A' for Active; 'I' for Inactive)
REMARK    1  A    between atoms: C4_4  and  C5_5 
REMARK    2  A    between atoms: C4_4  and  O7_7 
REMARK    3  A    between atoms: C5_5  and  C6_6 
ROOT
HETATM    1  C1  UNL     1     -33.578   7.297   5.643  1.00 20.00     0.014 C 
HETATM    2  C5  UNL     1     -33.331   6.724   4.263  1.00 20.00     0.023 C 
ENDROOT
BRANCH   2   3
HETATM    3  C4  UNL     1     -33.380   7.838   3.203  1.00 20.00     0.172 C 
BRANCH   3   4
HETATM    4  O7  UNL     1     -32.713   7.400   2.023  1.00 20.00    -0.396 OA
HETATM    5  C3  UNL     1     -32.693   8.417   1.031  1.00 20.00     0.201 C 
ENDBRANCH   3   4
ENDBRANCH   2   3
BRANCH   2   6
HETATM    6  C6  UNL     1     -34.290   5.565   3.895  1.00 20.00     0.084 C 
HETATM    7  C2  UNL     1     -34.053   4.996   2.499  1.00 20.00     0.027 C 
HETATM    8 CL8  UNL     1     -34.235   4.231   5.090  1.00 20.00    -0.125 Cl
ENDBRANCH   2   6
TORSDOF 3
