REMARK  3 active torsions:
REMARK  status: ('A' for Active; 'I' for Inactive)
REMARK    1  A    between atoms: C4_4  and  C5_5 
REMARK    2  A    between atoms: C4_4  and  O7_7 
REMARK    3  A    between atoms: C5_5  and  C6_6 
ROOT
HETATM    1  C1  UNL     1     -31.802   7.005   3.383  1.00 20.00     0.014 C 
HETATM    2  C5  UNL     1     -33.258   7.188   3.005  1.00 20.00     0.023 C 
ENDROOT
BRANCH   2   3
HETATM    3  C4  UNL     1     -33.429   7.110   1.479  1.00 20.00     0.172 C 
BRANCH   3   4
HETATM    4  O7  UNL     1     -32.654   8.133   0.861  1.00 20.00    -0.396 OA
HETATM    5  C3  UNL     1     -33.293   9.397   0.956  1.00 20.00     0.201 C 
ENDBRANCH   3   4
ENDBRANCH   2   3
BRANCH   2   6
HETATM    6  C6  UNL     1     -34.208   6.203   3.730  1.00 20.00     0.084 C 
HETATM    7  C2  UNL     1     -34.183   6.341   5.250  1.00 20.00     0.027 C 
HETATM    8 CL8  UNL     1     -33.897   4.494   3.293  1.00 20.00    -0.125 Cl
ENDBRANCH   2   6
TORSDOF 3
