REMARK  2 active torsions:
REMARK  status: ('A' for Active; 'I' for Inactive)
REMARK    1  A    between atoms: C2_2  and  C3_3 
REMARK    2  A    between atoms: C2_2  and  N4_4 
ROOT
HETATM    1  C1  UNL     1     -32.568   8.340   1.021  1.00 20.00     0.332 C 
HETATM    2  N4  UNL     1     -32.228   7.323   1.498  1.00 20.00    -0.242 NA
HETATM    3  O5  UNL     1     -32.907   9.358   0.539  1.00 20.00    -0.260 OA
ENDROOT
BRANCH   2   4
HETATM    4  C2  UNL     1     -32.345   7.271   2.957  1.00 20.00     0.224 C 
BRANCH   4   5
HETATM    5  C3  UNL     1     -33.721   6.764   3.325  1.00 20.00     0.372 C 
HETATM    6  F6  UNL     1     -34.010   7.091   4.608  1.00 20.00    -0.213 F 
HETATM    7  F7  UNL     1     -33.757   5.412   3.240  1.00 20.00    -0.213 F 
ENDBRANCH   4   5
ENDBRANCH   2   4
TORSDOF 2
