REMARK  2 active torsions:
REMARK  status: ('A' for Active; 'I' for Inactive)
REMARK    1  A    between atoms: C5_5  and  S10_10 
REMARK    2  A    between atoms: C8_8  and  S10_10 
ROOT
HETATM    1  C1  UNL     1     -33.164   6.951   4.644  1.00 20.00     0.080 C 
HETATM    2  C2  UNL     1     -34.738   4.412   4.379  1.00 20.00     0.009 C 
HETATM    3  C3  UNL     1     -35.353   5.794   4.072  1.00 20.00     0.037 C 
HETATM    4  C4  UNL     1     -33.583   4.761   3.401  1.00 20.00     0.014 C 
HETATM    5  C5  UNL     1     -33.944   6.268   3.634  1.00 20.00     0.100 C 
HETATM    6  C6  UNL     1     -33.728   4.093   2.036  1.00 20.00     0.012 C 
HETATM    7  N9  UNL     1     -32.539   7.499   5.453  1.00 20.00    -0.196 NA
ENDROOT
BRANCH   5   8
HETATM    8  S10 UNL     1     -34.002   7.282   2.116  1.00 20.00    -0.144 SA
BRANCH   8   9
HETATM    9  C8  UNL     1     -32.227   7.341   1.797  1.00 20.00     0.071 C 
HETATM   10  C7  UNL     1     -31.936   8.148   0.546  1.00 20.00     0.016 C 
ENDBRANCH   8   9
ENDBRANCH   5   8
TORSDOF 2
