REMARK  2 active torsions:
REMARK  status: ('A' for Active; 'I' for Inactive)
REMARK    1  A    between atoms: C1_1  and  C7_7 
REMARK    2  A    between atoms: C8_8  and  C12_12 
ROOT
HETATM    1  C2  UNL     1     -31.944   7.424   3.823  1.00 20.00     0.001 C 
HETATM    2  C3  UNL     1     -33.355   7.068   4.286  1.00 20.00     0.012 C 
HETATM    3  C4  UNL     1     -33.905   5.169   2.576  1.00 20.00     0.012 C 
HETATM    4  C5  UNL     1     -31.481   6.793   2.513  1.00 20.00     0.005 C 
HETATM    5  C6  UNL     1     -33.848   6.299   1.547  1.00 20.00     0.006 C 
HETATM    6  C7  UNL     1     -33.771   5.613   4.047  1.00 20.00     0.055 C 
HETATM    7  C8  UNL     1     -32.446   6.899   1.322  1.00 20.00    -0.011 C 
ENDROOT
BRANCH   6   8
HETATM    8  C1  UNL     1     -35.091   5.394   4.730  1.00 20.00     0.127 C 
HETATM    9  C9  UNL     1     -35.044   4.988   6.179  1.00 20.00     0.091 C 
HETATM   10  O13 UNL     1     -36.157   5.540   4.135  1.00 20.00    -0.298 OA
ENDBRANCH   6   8
BRANCH   7  11
HETATM   11  C12 UNL     1     -32.562   8.340   0.819  1.00 20.00    -0.019 C 
HETATM   12  C10 UNL     1     -31.194   8.867   0.400  1.00 20.00     0.010 C 
HETATM   13  C11 UNL     1     -33.551   8.418  -0.339  1.00 20.00     0.010 C 
ENDBRANCH   7  11
TORSDOF 2
