REMARK  1 active torsions:
REMARK  status: ('A' for Active; 'I' for Inactive)
REMARK    1  A    between atoms: C1_1  and  C7_7 
ROOT
HETATM    1  C2  UNL     1     -33.288   4.887   2.217  1.00 20.00     0.002 C 
HETATM    2  C3  UNL     1     -32.114   5.858   2.329  1.00 20.00     0.012 C 
HETATM    3  C4  UNL     1     -33.703   7.555   3.514  1.00 20.00     0.013 C 
HETATM    4  C5  UNL     1     -33.724   4.324   3.571  1.00 20.00     0.008 C 
HETATM    5  C6  UNL     1     -33.810   6.632   4.728  1.00 20.00     0.009 C 
HETATM    6  C7  UNL     1     -32.489   7.312   2.617  1.00 20.00     0.055 C 
HETATM    7  C8  UNL     1     -34.516   5.271   4.501  1.00 20.00    -0.048 C 
HETATM    8  C10 UNL     1     -34.635   4.575   5.879  1.00 20.00     0.015 C 
HETATM    9  C11 UNL     1     -35.949   5.463   3.965  1.00 20.00     0.015 C 
ENDROOT
BRANCH   6  10
HETATM   10  C1  UNL     1     -32.716   8.035   1.321  1.00 20.00     0.127 C 
HETATM   11  C9  UNL     1     -32.323   9.487   1.277  1.00 20.00     0.091 C 
HETATM   12  O12 UNL     1     -33.198   7.468   0.341  1.00 20.00    -0.298 OA
ENDBRANCH   6  10
TORSDOF 1
