REMARK  2 active torsions:
REMARK  status: ('A' for Active; 'I' for Inactive)
REMARK    1  A    between atoms: C5_5  and  C7_7 
REMARK    2  A    between atoms: C6_6  and  C8_8 
ROOT
HETATM    1  C1  UNL     1     -31.972   8.428   4.027  1.00 20.00     0.001 C 
HETATM    2  C2  UNL     1     -31.558   8.129   2.589  1.00 20.00     0.005 C 
HETATM    3  C3  UNL     1     -32.614   7.213   4.692  1.00 20.00     0.013 C 
HETATM    4  C4  UNL     1     -33.377   6.381   2.431  1.00 20.00     0.018 C 
HETATM    5  C5  UNL     1     -32.736   7.604   1.759  1.00 20.00    -0.004 C 
HETATM    6  C6  UNL     1     -33.800   6.683   3.876  1.00 20.00     0.094 C 
ENDROOT
BRANCH   6   7
HETATM    7  C8  UNL     1     -34.394   5.439   4.534  1.00 20.00     0.391 C 
HETATM    8  F9  UNL     1     -35.451   5.007   3.830  1.00 20.00    -0.171 F 
HETATM    9  F10 UNL     1     -33.476   4.463   4.585  1.00 20.00    -0.171 F 
HETATM   10  F11 UNL     1     -34.792   5.727   5.783  1.00 20.00    -0.171 F 
ENDBRANCH   6   7
BRANCH   5  11
HETATM   11  C7  UNL     1     -32.286   7.265   0.339  1.00 20.00     0.089 C 
HETATM   12 BR12 UNL     1     -32.229   8.886  -0.724  1.00 20.00    -0.096 Br
ENDBRANCH   5  11
TORSDOF 2
