REMARK  3 active torsions:
REMARK  status: ('A' for Active; 'I' for Inactive)
REMARK    1  A    between atoms: C1_1  and  C7_7 
REMARK    2  A    between atoms: C8_8  and  C11_11 
REMARK    3  A    between atoms: C11_11  and  C12_12 
ROOT
HETATM    1  C2  UNL     1     -33.870   4.090   2.243  1.00 20.00     0.001 C 
HETATM    2  C3  UNL     1     -33.938   4.080   3.767  1.00 20.00     0.012 C 
HETATM    3  C4  UNL     1     -34.951   6.481   3.716  1.00 20.00     0.012 C 
HETATM    4  C5  UNL     1     -32.848   5.089   1.703  1.00 20.00     0.005 C 
HETATM    5  C6  UNL     1     -33.608   7.026   3.226  1.00 20.00     0.005 C 
HETATM    6  C7  UNL     1     -34.906   5.098   4.370  1.00 20.00     0.055 C 
HETATM    7  C8  UNL     1     -33.251   6.566   1.802  1.00 20.00    -0.014 C 
ENDROOT
BRANCH   6   8
HETATM    8  C1  UNL     1     -34.592   5.257   5.830  1.00 20.00     0.127 C 
HETATM    9  C9  UNL     1     -33.238   5.816   6.175  1.00 20.00     0.091 C 
HETATM   10  O13 UNL     1     -35.403   4.948   6.702  1.00 20.00    -0.298 OA
ENDBRANCH   6   8
BRANCH   7  11
HETATM   11  C11 UNL     1     -32.113   7.434   1.251  1.00 20.00     0.004 C 
BRANCH  11  12
HETATM   12  C12 UNL     1     -32.626   8.805   0.833  1.00 20.00    -0.004 C 
HETATM   13  C10 UNL     1     -33.669   8.684  -0.267  1.00 20.00     0.005 C 
ENDBRANCH  11  12
ENDBRANCH   7  11
TORSDOF 3
