REMARK  2 active torsions:
REMARK  status: ('A' for Active; 'I' for Inactive)
REMARK    1  A    between atoms: C5_5  and  C9_9 
REMARK    2  A    between atoms: C6_6  and  C10_10 
ROOT
HETATM    1  C1  UNL     1     -33.012   7.990   3.650  1.00 20.00     0.005 C 
HETATM    2  C2  UNL     1     -34.063   6.601   1.822  1.00 20.00     0.005 C 
HETATM    3  C3  UNL     1     -33.147   6.817   4.619  1.00 20.00     0.006 C 
HETATM    4  C4  UNL     1     -34.198   5.428   2.791  1.00 20.00     0.006 C 
HETATM    5  C5  UNL     1     -32.889   7.515   2.197  1.00 20.00    -0.015 C 
HETATM    6  C6  UNL     1     -34.321   5.904   4.244  1.00 20.00     0.003 C 
ENDROOT
BRANCH   6   7
HETATM    7  C10 UNL     1     -34.405   4.713   5.196  1.00 20.00     0.082 C 
HETATM    8  C8  UNL     1     -34.569   5.166   6.637  1.00 20.00     0.027 C 
HETATM    9 CL11 UNL     1     -32.927   3.725   5.039  1.00 20.00    -0.125 Cl
ENDBRANCH   6   7
BRANCH   5  10
HETATM   10  C9  UNL     1     -32.807   8.706   1.245  1.00 20.00     0.000 C 
HETATM   11  C7  UNL     1     -32.648   8.268  -0.174  1.00 20.00     0.005 C 
ENDBRANCH   5  10
TORSDOF 2
