REMARK  1 active torsions:
REMARK  status: ('A' for Active; 'I' for Inactive)
REMARK    1  A    between atoms: C6_6  and  C11_11 
ROOT
HETATM    1  C1  UNL     1     -32.672   4.862   2.517  1.00 20.00     0.001 C 
HETATM    2  C2  UNL     1     -33.117   5.742   1.356  1.00 20.00     0.006 C 
HETATM    3  C3  UNL     1     -33.885   7.792   2.706  1.00 20.00     0.007 C 
HETATM    4  C4  UNL     1     -33.750   4.543   3.549  1.00 20.00     0.008 C 
HETATM    5  C5  UNL     1     -33.840   7.094   4.068  1.00 20.00     0.009 C 
HETATM    6  C6  UNL     1     -32.938   7.238   1.637  1.00 20.00     0.003 C 
HETATM    7  C7  UNL     1     -34.543   5.718   4.181  1.00 20.00    -0.048 C 
HETATM    8  C8  UNL     1     -35.966   5.763   3.583  1.00 20.00     0.015 C 
HETATM    9  C9  UNL     1     -34.709   5.407   5.691  1.00 20.00     0.015 C 
ENDROOT
BRANCH   6  10
HETATM   10  C11 UNL     1     -33.120   8.032   0.338  1.00 20.00     0.082 C 
HETATM   11  C10 UNL     1     -32.080   7.639  -0.693  1.00 20.00     0.027 C 
HETATM   12 CL12 UNL     1     -32.998   9.773   0.696  1.00 20.00    -0.125 Cl
ENDBRANCH   6  10
TORSDOF 1
