REMARK  3 active torsions:
REMARK  status: ('A' for Active; 'I' for Inactive)
REMARK    1  A    between atoms: C5_5  and  S11_11 
REMARK    2  A    between atoms: C8_8  and  C9_9 
REMARK    3  A    between atoms: C9_9  and  S11_11 
ROOT
HETATM    1  C1  UNL     1     -33.048   7.029   4.662  1.00 20.00     0.080 C 
HETATM    2  C2  UNL     1     -35.676   5.607   4.296  1.00 20.00     0.009 C 
HETATM    3  C3  UNL     1     -35.030   6.454   3.178  1.00 20.00     0.037 C 
HETATM    4  C4  UNL     1     -34.345   4.814   4.382  1.00 20.00     0.014 C 
HETATM    5  C5  UNL     1     -33.646   6.068   3.763  1.00 20.00     0.100 C 
HETATM    6  C6  UNL     1     -33.951   4.332   5.768  1.00 20.00     0.012 C 
HETATM    7  N10 UNL     1     -32.567   7.801   5.384  1.00 20.00    -0.196 NA
ENDROOT
BRANCH   5   8
HETATM    8  S11 UNL     1     -32.453   5.605   2.453  1.00 20.00    -0.143 SA
BRANCH   8   9
HETATM    9  C9  UNL     1     -32.211   7.249   1.747  1.00 20.00     0.075 C 
BRANCH   9  10
HETATM   10  C8  UNL     1     -33.382   7.620   0.844  1.00 20.00     0.006 C 
HETATM   11  C7  UNL     1     -33.193   9.007   0.245  1.00 20.00     0.006 C 
ENDBRANCH   9  10
ENDBRANCH   8   9
ENDBRANCH   5   8
TORSDOF 3
