REMARK  2 active torsions:
REMARK  status: ('A' for Active; 'I' for Inactive)
REMARK    1  A    between atoms: C4_4  and  C9_9 
REMARK    2  A    between atoms: C5_5  and  C8_8 
ROOT
HETATM    1  C1  UNL     1     -34.660   4.969   3.385  1.00 20.00     0.032 C 
HETATM    2  C2  UNL     1     -33.894   7.343   3.094  1.00 20.00     0.038 C 
HETATM    3  C3  UNL     1     -33.345   4.540   2.744  1.00 20.00     0.168 C 
HETATM    4  C4  UNL     1     -34.553   6.345   4.056  1.00 20.00     0.008 C 
HETATM    5  C5  UNL     1     -32.611   6.782   2.473  1.00 20.00     0.121 C 
HETATM    6  O10 UNL     1     -32.878   5.532   1.831  1.00 20.00    -0.386 OA
ENDROOT
BRANCH   4   7
HETATM    7  C9  UNL     1     -33.807   6.266   5.390  1.00 20.00     0.082 C 
HETATM    8  C7  UNL     1     -33.739   7.624   6.065  1.00 20.00     0.027 C 
HETATM    9 CL11 UNL     1     -34.631   5.100   6.459  1.00 20.00    -0.125 Cl
ENDBRANCH   4   7
BRANCH   5  10
HETATM   10  C8  UNL     1     -32.054   7.733   1.421  1.00 20.00     0.027 C 
HETATM   11  C6  UNL     1     -33.043   7.998   0.331  1.00 20.00     0.007 C 
ENDBRANCH   5  10
TORSDOF 2
