REMARK  2 active torsions:
REMARK  status: ('A' for Active; 'I' for Inactive)
REMARK    1  A    between atoms: C4_4  and  C9_9 
REMARK    2  A    between atoms: C5_5  and  C8_8 
ROOT
HETATM    1  C1  UNL     1     -32.758   5.740   1.733  1.00 20.00     0.032 C 
HETATM    2  C2  UNL     1     -33.517   7.282   3.569  1.00 20.00     0.038 C 
HETATM    3  C3  UNL     1     -33.511   4.584   2.394  1.00 20.00     0.168 C 
HETATM    4  C4  UNL     1     -33.429   7.076   2.047  1.00 20.00     0.008 C 
HETATM    5  C5  UNL     1     -33.539   5.954   4.336  1.00 20.00     0.121 C 
HETATM    6  O10 UNL     1     -34.227   4.966   3.570  1.00 20.00    -0.386 OA
ENDROOT
BRANCH   4   7
HETATM    7  C9  UNL     1     -32.709   8.240   1.372  1.00 20.00     0.082 C 
HETATM    8  C7  UNL     1     -32.733   8.100  -0.140  1.00 20.00     0.027 C 
HETATM    9 CL11 UNL     1     -33.488   9.771   1.849  1.00 20.00    -0.125 Cl
ENDBRANCH   4   7
BRANCH   5  10
HETATM   10  C8  UNL     1     -34.241   6.098   5.679  1.00 20.00     0.027 C 
HETATM   11  C6  UNL     1     -34.296   4.801   6.420  1.00 20.00     0.007 C 
ENDBRANCH   5  10
TORSDOF 2
