REMARK  2 active torsions:
REMARK  status: ('A' for Active; 'I' for Inactive)
REMARK    1  A    between atoms: C4_4  and  C8_8 
REMARK    2  A    between atoms: C5_5  and  C9_9 
ROOT
HETATM    1  C1  UNL     1     -33.053   6.677   4.084  1.00 20.00     0.005 C 
HETATM    2  C2  UNL     1     -32.261   7.598   3.150  1.00 20.00     0.006 C 
HETATM    3  C3  UNL     1     -33.660   6.180   1.807  1.00 20.00     0.010 C 
HETATM    4  C4  UNL     1     -33.614   5.558   3.200  1.00 20.00    -0.014 C 
HETATM    5  C5  UNL     1     -32.354   6.969   1.758  1.00 20.00    -0.000 C 
ENDROOT
BRANCH   5   6
HETATM    6  C9  UNL     1     -32.315   7.990   0.634  1.00 20.00     0.058 C 
HETATM    7  C7  UNL     1     -32.500   7.351  -0.731  1.00 20.00     0.022 C 
HETATM    8 BR10 UNL     1     -33.742   9.299   0.915  1.00 20.00    -0.091 Br
ENDBRANCH   5   6
BRANCH   4   9
HETATM    9  C8  UNL     1     -34.964   5.043   3.670  1.00 20.00     0.000 C 
HETATM   10  C6  UNL     1     -34.894   4.465   5.048  1.00 20.00     0.005 C 
ENDBRANCH   4   9
TORSDOF 2
