REMARK  1 active torsions:
REMARK  status: ('A' for Active; 'I' for Inactive)
REMARK    1  A    between atoms: C6_6  and  C10_10 
ROOT
HETATM    1  C1  UNL     1     -33.318   4.615   2.971  1.00 20.00     0.001 C 
HETATM    2  C2  UNL     1     -32.968   5.878   2.188  1.00 20.00     0.005 C 
HETATM    3  C3  UNL     1     -33.518   7.833   3.714  1.00 20.00     0.006 C 
HETATM    4  C4  UNL     1     -33.642   4.732   4.457  1.00 20.00     0.008 C 
HETATM    5  C5  UNL     1     -34.039   7.191   4.997  1.00 20.00     0.009 C 
HETATM    6  C6  UNL     1     -32.405   7.053   2.995  1.00 20.00    -0.005 C 
HETATM    7  C7  UNL     1     -34.679   5.788   4.899  1.00 20.00    -0.048 C 
HETATM    8  C8  UNL     1     -35.927   5.795   4.001  1.00 20.00     0.015 C 
HETATM    9  C9  UNL     1     -35.143   5.408   6.329  1.00 20.00     0.015 C 
ENDROOT
BRANCH   6  10
HETATM   10  C10 UNL     1     -31.672   8.006   2.039  1.00 20.00     0.089 C 
HETATM   11 BR11 UNL     1     -32.906   8.619   0.680  1.00 20.00    -0.096 Br
ENDBRANCH   6  10
TORSDOF 1
