REMARK  1 active torsions:
REMARK  status: ('A' for Active; 'I' for Inactive)
REMARK    1  A    between atoms: C9_9  and  N10_10 
ROOT
HETATM    1  C1  UNL     1     -33.084   9.340   0.089  1.00 20.00     0.013 C 
HETATM    2  C2  UNL     1     -32.673   8.398   0.708  1.00 20.00    -0.087 C 
HETATM    3  C9  UNL     1     -32.165   7.249   1.462  1.00 20.00     0.364 C 
ENDROOT
BRANCH   3   4
HETATM    4  N10 UNL     1     -33.202   6.701   2.323  1.00 20.00     0.100 N 
HETATM    5  C3  UNL     1     -32.925   5.320   2.732  1.00 20.00     0.278 C 
HETATM    6  C5  UNL     1     -33.691   5.137   4.052  1.00 20.00     0.015 C 
HETATM    7  C6  UNL     1     -34.267   6.528   4.361  1.00 20.00     0.015 C 
HETATM    8  C7  UNL     1     -34.777   4.072   3.961  1.00 20.00     0.012 C 
HETATM    9  C4  UNL     1     -33.365   7.462   3.562  1.00 20.00     0.278 C 
HETATM   10  C8  UNL     1     -34.293   6.859   5.845  1.00 20.00     0.012 C 
ENDBRANCH   3   4
TORSDOF 1
