REMARK  2 active torsions:
REMARK  status: ('A' for Active; 'I' for Inactive)
REMARK    1  A    between atoms: C3_3  and  C6_6 
REMARK    2  A    between atoms: C6_6  and  C7_7 
ROOT
HETATM    1  C4  UNL     1     -33.719   7.498   5.224  1.00 20.00     0.011 C 
HETATM    2  C6  UNL     1     -34.304   6.650   4.118  1.00 20.00    -0.001 C 
ENDROOT
BRANCH   2   3
HETATM    3  C3  UNL     1     -35.070   5.467   4.722  1.00 20.00    -0.010 A 
HETATM    4  C1  UNL     1     -34.341   4.418   5.515  1.00 20.00     0.005 A 
HETATM    5  C2  UNL     1     -35.269   5.374   6.210  1.00 20.00     0.005 A 
ENDBRANCH   2   3
BRANCH   2   6
HETATM    6  C7  UNL     1     -33.264   6.158   3.091  1.00 20.00     0.058 C 
HETATM    7  C5  UNL     1     -33.736   5.080   2.126  1.00 20.00     0.022 C 
HETATM    8 BR8  UNL     1     -32.584   7.676   2.040  1.00 20.00    -0.091 Br
ENDBRANCH   2   6
TORSDOF 2
