REMARK  1 active torsions:
REMARK  status: ('A' for Active; 'I' for Inactive)
REMARK    1  A    between atoms: C4_4  and  C9_9 
ROOT
HETATM    1  C1  UNL     1     -34.905   5.064   3.559  1.00 20.00     0.032 C 
HETATM    2  C2  UNL     1     -34.230   7.487   3.638  1.00 20.00     0.043 C 
HETATM    3  C3  UNL     1     -33.726   4.843   2.625  1.00 20.00     0.169 C 
HETATM    4  C4  UNL     1     -34.699   6.280   4.465  1.00 20.00     0.008 C 
HETATM    5  C5  UNL     1     -33.162   7.189   2.563  1.00 20.00     0.054 C 
HETATM    6  C6  UNL     1     -31.738   7.111   3.131  1.00 20.00     0.045 C 
HETATM    7  C7  UNL     1     -33.181   8.328   1.528  1.00 20.00     0.045 C 
HETATM    8  O10 UNL     1     -33.481   5.999   1.831  1.00 20.00    -0.381 OA
ENDROOT
BRANCH   4   9
HETATM    9  C9  UNL     1     -33.788   5.965   5.651  1.00 20.00     0.082 C 
HETATM   10  C8  UNL     1     -34.383   4.884   6.537  1.00 20.00     0.027 C 
HETATM   11 CL11 UNL     1     -33.524   7.450   6.606  1.00 20.00    -0.125 Cl
ENDBRANCH   4   9
TORSDOF 1
