REMARK  2 active torsions:
REMARK  status: ('A' for Active; 'I' for Inactive)
REMARK    1  A    between atoms: C8_8  and  C9_9 
REMARK    2  A    between atoms: C9_9  and  N11_11 
ROOT
HETATM    1  C1  UNL     1     -32.957   8.513  -0.027  1.00 20.00     0.060 C 
HETATM    2  C8  UNL     1     -31.710   8.009   0.568  1.00 20.00     0.154 C 
HETATM    3  N10 UNL     1     -33.940   8.913  -0.496  1.00 20.00    -0.197 NA
ENDROOT
BRANCH   2   4
HETATM    4  C9  UNL     1     -31.895   6.635   1.202  1.00 20.00     0.286 C 
BRANCH   4   5
HETATM    5  N11 UNL     1     -32.899   6.680   2.254  1.00 20.00     0.090 N 
HETATM    6  C2  UNL     1     -33.443   5.356   2.573  1.00 20.00     0.277 C 
HETATM    7  C4  UNL     1     -33.942   5.471   4.022  1.00 20.00     0.015 C 
HETATM    8  C5  UNL     1     -33.512   6.878   4.468  1.00 20.00     0.015 C 
HETATM    9  C6  UNL     1     -35.446   5.263   4.147  1.00 20.00     0.012 C 
HETATM   10  C3  UNL     1     -32.374   7.212   3.511  1.00 20.00     0.277 C 
HETATM   11  C7  UNL     1     -33.096   6.951   5.929  1.00 20.00     0.012 C 
ENDBRANCH   4   5
ENDBRANCH   2   4
TORSDOF 2
