REMARK  1 active torsions:
REMARK  status: ('A' for Active; 'I' for Inactive)
REMARK    1  A    between atoms: C1_1  and  C3_3 
REMARK       I    between atoms: C3_3  and  N11_11 
ROOT
HETATM    1  C3  UNL     1     -32.151   7.216   3.116  1.00 20.00     0.243 C 
HETATM    2  C4  UNL     1     -34.523   6.400   5.861  1.00 20.00     0.030 C 
HETATM    3  C5  UNL     1     -33.221   7.059   5.424  1.00 20.00     0.127 C 
HETATM    4  C6  UNL     1     -34.104   5.769   3.594  1.00 20.00     0.134 C 
HETATM    5  C7  UNL     1     -34.681   5.207   4.900  1.00 20.00    -0.030 C 
HETATM    6  C9  UNL     1     -36.147   4.800   4.745  1.00 20.00     0.016 C 
HETATM    7  C10 UNL     1     -33.862   3.999   5.383  1.00 20.00     0.016 C 
HETATM    8  N11 UNL     1     -33.086   6.727   4.008  1.00 20.00    -0.348 N 
HETATM    9  O12 UNL     1     -31.013   7.573   3.421  1.00 20.00    -0.268 OA
ENDROOT
BRANCH   1  10
HETATM   10  C1  UNL     1     -32.571   7.312   1.704  1.00 20.00     0.070 C 
HETATM   11  C2  UNL     1     -32.600   8.463   1.018  1.00 20.00    -0.026 C 
HETATM   12  C8  UNL     1     -33.028   8.566  -0.409  1.00 20.00     0.036 C 
ENDBRANCH   1  10
TORSDOF 1
