REMARK  2 active torsions:
REMARK  status: ('A' for Active; 'I' for Inactive)
REMARK    1  A    between atoms: C2_2  and  C3_3 
REMARK    2  A    between atoms: C2_2  and  C10_10 
ROOT
HETATM    1  C1  UNL     1     -32.704   8.164   0.716  1.00 20.00     0.066 C 
HETATM    2  C10 UNL     1     -32.147   7.316   1.775  1.00 20.00     0.202 C 
HETATM    3  N11 UNL     1     -33.141   8.837  -0.122  1.00 20.00    -0.197 NA
ENDROOT
BRANCH   2   4
HETATM    4  C2  UNL     1     -33.018   6.115   2.063  1.00 20.00     0.145 C 
HETATM    5  O12 UNL     1     -32.935   5.036   1.492  1.00 20.00    -0.296 OA
BRANCH   4   6
HETATM    6  C3  UNL     1     -34.025   6.310   3.116  1.00 20.00     0.073 A 
HETATM    7  C4  UNL     1     -33.672   6.146   4.586  1.00 20.00    -0.029 A 
HETATM    8  C5  UNL     1     -34.596   5.132   3.889  1.00 20.00    -0.029 A 
HETATM    9  C6  UNL     1     -34.264   7.142   5.559  1.00 20.00     0.016 C 
HETATM   10  C7  UNL     1     -32.274   5.726   4.988  1.00 20.00     0.016 C 
HETATM   11  C8  UNL     1     -34.095   3.730   3.616  1.00 20.00     0.016 C 
HETATM   12  C9  UNL     1     -36.080   5.151   4.191  1.00 20.00     0.016 C 
ENDBRANCH   4   6
ENDBRANCH   2   4
TORSDOF 2
