REMARK  4 active torsions:
REMARK  status: ('A' for Active; 'I' for Inactive)
REMARK    1  A    between atoms: C1_1  and  C7_7 
REMARK    2  A    between atoms: C1_1  and  C9_9 
REMARK    3  A    between atoms: C8_8  and  C9_9 
REMARK    4  A    between atoms: C9_9  and  N10_10 
ROOT
HETATM    1  C4  UNL     1     -35.158   6.027   2.615  1.00 20.00     0.058 C 
HETATM    2  C9  UNL     1     -33.903   6.220   3.477  1.00 20.00     0.214 C 
ENDROOT
BRANCH   2   3
HETATM    3  C1  UNL     1     -32.879   7.117   2.750  1.00 20.00     0.165 C 
HETATM    4  O11 UNL     1     -31.666   6.999   2.943  1.00 20.00    -0.295 OA
BRANCH   3   5
HETATM    5  C7  UNL     1     -33.418   8.172   1.791  1.00 20.00     0.076 C 
HETATM    6  C2  UNL     1     -32.313   9.001   1.158  1.00 20.00     0.013 C 
ENDBRANCH   3   5
ENDBRANCH   2   3
BRANCH   2   7
HETATM    7  C8  UNL     1     -34.292   6.808   4.850  1.00 20.00     0.045 C 
HETATM    8  C3  UNL     1     -33.139   6.984   5.834  1.00 20.00     0.008 C 
ENDBRANCH   2   7
BRANCH   2   9
HETATM    9  N10 UNL     1     -33.292   4.894   3.646  1.00 20.00     0.096 N 
HETATM   10  C5  UNL     1     -32.961   4.322   2.345  1.00 20.00     0.310 C 
HETATM   11  C6  UNL     1     -34.195   4.014   4.383  1.00 20.00     0.310 C 
ENDBRANCH   2   9
TORSDOF 4
