REMARK  1 active torsions:
REMARK  status: ('A' for Active; 'I' for Inactive)
REMARK    1  A    between atoms: C1_1  and  C2_2 
ROOT
HETATM    1  C2  UNL     1     -34.006   6.590   2.585  1.00 20.00     0.089 A 
HETATM    2  C3  UNL     1     -34.390   6.065   3.960  1.00 20.00    -0.028 A 
HETATM    3  C4  UNL     1     -33.644   5.162   2.963  1.00 20.00    -0.028 A 
HETATM    4  C5  UNL     1     -35.861   5.822   4.225  1.00 20.00     0.016 C 
HETATM    5  C6  UNL     1     -33.671   6.569   5.193  1.00 20.00     0.016 C 
HETATM    6  C7  UNL     1     -32.201   4.790   3.230  1.00 20.00     0.016 C 
HETATM    7  C8  UNL     1     -34.394   4.047   2.266  1.00 20.00     0.016 C 
ENDROOT
BRANCH   1   8
HETATM    8  C1  UNL     1     -32.971   7.622   2.425  1.00 20.00     0.224 C 
HETATM    9  O9  UNL     1     -31.976   7.654   3.142  1.00 20.00    -0.279 OA
HETATM   10 CL10 UNL     1     -33.346   8.730   1.140  1.00 20.00    -0.043 Cl
ENDBRANCH   1   8
TORSDOF 1
