REMARK  3 active torsions:
REMARK  status: ('A' for Active; 'I' for Inactive)
REMARK    1  A    between atoms: C3_3  and  C11_11 
REMARK    2  A    between atoms: C8_8  and  N12_12 
REMARK    3  A    between atoms: C11_11  and  N12_12 
ROOT
HETATM    1  C1  UNL     1     -34.641   5.291   6.028  1.00 20.00     0.127 C 
HETATM    2  C4  UNL     1     -34.261   6.732   6.286  1.00 20.00     0.080 C 
HETATM    3  C5  UNL     1     -35.243   4.982   4.674  1.00 20.00     0.080 C 
HETATM    4  C6  UNL     1     -33.421   7.281   5.139  1.00 20.00     0.040 C 
HETATM    5  C7  UNL     1     -34.384   5.565   3.558  1.00 20.00     0.040 C 
HETATM    6  C8  UNL     1     -34.110   7.049   3.795  1.00 20.00     0.189 C 
HETATM    7  O13 UNL     1     -34.562   4.436   6.908  1.00 20.00    -0.298 OA
ENDROOT
BRANCH   6   8
HETATM    8  N12 UNL     1     -33.224   7.551   2.710  1.00 20.00    -0.067 N 
HETATM    9  C10 UNL     1     -32.079   6.614   2.420  1.00 20.00     0.270 C 
HETATM   10  H33 UNL     1     -32.798   8.434   3.037  1.00 20.00     0.280 HD
BRANCH   8  11
HETATM   11  C11 UNL     1     -33.986   7.891   1.454  1.00 20.00     0.268 C 
BRANCH  11  12
HETATM   12  C3  UNL     1     -33.270   8.866   0.562  1.00 20.00    -0.068 C 
HETATM   13  C2  UNL     1     -32.934   8.547  -0.697  1.00 20.00     0.015 C 
HETATM   14  C9  UNL     1     -32.977  10.223   1.133  1.00 20.00     0.044 C 
ENDBRANCH  11  12
ENDBRANCH   8  11
ENDBRANCH   6   8
TORSDOF 3
