REMARK  4 active torsions:
REMARK  status: ('A' for Active; 'I' for Inactive)
REMARK    1  A    between atoms: C4_4  and  C5_5 
REMARK    2  A    between atoms: C5_5  and  C7_7 
REMARK    3  A    between atoms: C6_6  and  C7_7 
REMARK    4  A    between atoms: C7_7  and  O9_9 
ROOT
HETATM    1  C1  UNL     1     -32.836   7.391   1.961  1.00 20.00     0.066 C 
HETATM    2  C3  UNL     1     -32.625   4.950   2.109  1.00 20.00     0.028 C 
HETATM    3  C6  UNL     1     -32.329   6.285   2.798  1.00 20.00     0.117 C 
HETATM    4  N8  UNL     1     -33.233   8.262   1.304  1.00 20.00    -0.197 NA
ENDROOT
BRANCH   3   5
HETATM    5  C7  UNL     1     -32.918   6.318   4.225  1.00 20.00     0.135 C 
BRANCH   5   6
HETATM    6  C5  UNL     1     -34.453   6.214   4.236  1.00 20.00     0.033 C 
BRANCH   6   7
HETATM    7  C4  UNL     1     -35.034   6.246   5.654  1.00 20.00    -0.002 C 
HETATM    8  C2  UNL     1     -34.536   5.071   6.483  1.00 20.00     0.005 C 
ENDBRANCH   6   7
ENDBRANCH   5   6
BRANCH   5   9
HETATM    9  O9  UNL     1     -32.500   7.511   4.886  1.00 20.00    -0.394 OA
HETATM   10  H22 UNL     1     -32.832   7.453   5.795  1.00 20.00     0.210 HD
ENDBRANCH   5   9
ENDBRANCH   3   5
TORSDOF 4
