REMARK  3 active torsions:
REMARK  status: ('A' for Active; 'I' for Inactive)
REMARK    1  A    between atoms: C5_5  and  C7_7 
REMARK    2  A    between atoms: C6_6  and  C7_7 
REMARK    3  A    between atoms: C6_6  and  O9_9 
ROOT
HETATM    1  C1  UNL     1     -33.240   6.614   2.856  1.00 20.00     0.071 C 
HETATM    2  C4  UNL     1     -35.190   7.773   3.793  1.00 20.00     0.034 C 
HETATM    3  C7  UNL     1     -34.239   6.567   3.955  1.00 20.00     0.070 C 
HETATM    4  N8  UNL     1     -32.460   6.652   1.998  1.00 20.00    -0.196 NA
ENDROOT
BRANCH   3   5
HETATM    5  C5  UNL     1     -35.030   5.230   3.879  1.00 20.00     0.022 C 
HETATM    6  C2  UNL     1     -34.196   3.957   4.005  1.00 20.00     0.007 C 
ENDBRANCH   3   5
BRANCH   3   7
HETATM    7  C6  UNL     1     -33.515   6.675   5.337  1.00 20.00     0.136 C 
HETATM    8  C3  UNL     1     -34.430   6.675   6.561  1.00 20.00     0.041 C 
BRANCH   7   9
HETATM    9  O9  UNL     1     -32.720   7.864   5.377  1.00 20.00    -0.394 OA
HETATM   10  H22 UNL     1     -32.215   7.824   6.202  1.00 20.00     0.210 HD
ENDBRANCH   7   9
ENDBRANCH   3   7
TORSDOF 3
