REMARK  3 active torsions:
REMARK  status: ('A' for Active; 'I' for Inactive)
REMARK    1  A    between atoms: C6_6  and  C7_7 
REMARK    2  A    between atoms: C7_7  and  C8_8 
REMARK    3  A    between atoms: C8_8  and  O10_10 
ROOT
HETATM    1  C1  UNL     1     -35.908   5.717   3.822  1.00 20.00     0.072 C 
HETATM    2  C3  UNL     1     -34.317   4.193   4.880  1.00 20.00     0.034 C 
HETATM    3  C7  UNL     1     -34.452   5.416   3.941  1.00 20.00     0.075 C 
HETATM    4  N9  UNL     1     -37.042   5.948   3.730  1.00 20.00    -0.196 NA
ENDROOT
BRANCH   3   5
HETATM    5  C6  UNL     1     -33.743   6.655   4.569  1.00 20.00     0.023 C 
HETATM    6  C2  UNL     1     -34.227   7.063   5.960  1.00 20.00     0.007 C 
ENDBRANCH   3   5
BRANCH   3   7
HETATM    7  C8  UNL     1     -33.871   5.082   2.503  1.00 20.00     0.071 C 
HETATM    8  C4  UNL     1     -34.030   6.239   1.502  1.00 20.00     0.047 C 
HETATM    9  C5  UNL     1     -34.475   3.817   1.869  1.00 20.00     0.047 C 
BRANCH   7  10
HETATM   10  O10 UNL     1     -32.451   4.870   2.602  1.00 20.00    -0.389 OA
HETATM   11  H25 UNL     1     -32.157   4.645   1.710  1.00 20.00     0.210 HD
ENDBRANCH   7  10
ENDBRANCH   3   7
TORSDOF 3
