REMARK  4 active torsions:
REMARK  status: ('A' for Active; 'I' for Inactive)
REMARK    1  A    between atoms: C4_4  and  C9_9 
REMARK    2  A    between atoms: C7_7  and  C9_9 
REMARK    3  A    between atoms: C8_8  and  C9_9 
REMARK    4  A    between atoms: C9_9  and  O11_11 
ROOT
HETATM    1  C1  UNL     1     -33.049   6.645   2.046  1.00 20.00     0.066 C 
HETATM    2  C6  UNL     1     -33.989   4.398   1.871  1.00 20.00     0.028 C 
HETATM    3  C8  UNL     1     -33.337   5.416   2.820  1.00 20.00     0.123 C 
HETATM    4  N10 UNL     1     -32.821   7.606   1.437  1.00 20.00    -0.197 NA
ENDROOT
BRANCH   3   5
HETATM    5  C9  UNL     1     -34.198   5.723   4.086  1.00 20.00     0.077 C 
BRANCH   5   6
HETATM    6  C4  UNL     1     -34.462   4.456   4.883  1.00 20.00     0.021 A 
HETATM    7  C2  UNL     1     -33.453   3.341   4.889  1.00 20.00     0.008 A 
HETATM    8  C3  UNL     1     -33.670   4.166   6.128  1.00 20.00     0.008 A 
ENDBRANCH   5   6
BRANCH   5   9
HETATM    9  C7  UNL     1     -33.577   6.805   5.012  1.00 20.00     0.035 C 
HETATM   10  C5  UNL     1     -34.433   7.222   6.201  1.00 20.00     0.008 C 
ENDBRANCH   5   9
BRANCH   5  11
HETATM   11  O11 UNL     1     -35.469   6.229   3.648  1.00 20.00    -0.388 OA
HETATM   12  H26 UNL     1     -35.976   6.404   4.453  1.00 20.00     0.210 HD
ENDBRANCH   5  11
ENDBRANCH   3   5
TORSDOF 4
