REMARK  4 active torsions:
REMARK  status: ('A' for Active; 'I' for Inactive)
REMARK    1  A    between atoms: C5_5  and  C7_7 
REMARK    2  A    between atoms: C6_6  and  C8_8 
REMARK    3  A    between atoms: C7_7  and  C8_8 
REMARK    4  A    between atoms: C8_8  and  O10_10 
ROOT
HETATM    1  C1  UNL     1     -34.821   5.653   4.195  1.00 20.00     0.067 C 
HETATM    2  C7  UNL     1     -33.953   6.816   3.883  1.00 20.00     0.126 C 
HETATM    3  N9  UNL     1     -35.504   4.747   4.438  1.00 20.00    -0.197 NA
ENDROOT
BRANCH   2   4
HETATM    4  C5  UNL     1     -33.122   7.198   5.127  1.00 20.00     0.018 C 
HETATM    5  C2  UNL     1     -33.984   7.481   6.355  1.00 20.00     0.006 C 
ENDBRANCH   2   4
BRANCH   2   6
HETATM    6  C8  UNL     1     -33.088   6.537   2.607  1.00 20.00     0.070 C 
HETATM    7  C4  UNL     1     -33.273   5.113   2.064  1.00 20.00     0.047 C 
BRANCH   6   8
HETATM    8  C6  UNL     1     -33.372   7.589   1.504  1.00 20.00     0.034 C 
HETATM    9  C3  UNL     1     -32.473   7.489   0.274  1.00 20.00     0.008 C 
ENDBRANCH   6   8
BRANCH   6  10
HETATM   10  O10 UNL     1     -31.705   6.666   2.977  1.00 20.00    -0.389 OA
HETATM   11  H25 UNL     1     -31.199   6.512   2.167  1.00 20.00     0.210 HD
ENDBRANCH   6  10
ENDBRANCH   2   6
TORSDOF 4
