REMARK  3 active torsions:
REMARK  status: ('A' for Active; 'I' for Inactive)
REMARK    1  A    between atoms: C5_5  and  C6_6 
REMARK    2  A    between atoms: C6_6  and  C7_7 
REMARK    3  A    between atoms: C6_6  and  O9_9 
ROOT
HETATM    1  C1  UNL     1     -35.908   5.637   4.273  1.00 20.00     0.071 C 
HETATM    2  C3  UNL     1     -33.861   4.329   3.948  1.00 20.00     0.033 C 
HETATM    3  C4  UNL     1     -34.152   5.729   5.992  1.00 20.00     0.033 C 
HETATM    4  C7  UNL     1     -34.439   5.657   4.480  1.00 20.00     0.067 C 
HETATM    5  N8  UNL     1     -37.057   5.620   4.111  1.00 20.00    -0.196 NA
ENDROOT
BRANCH   4   6
HETATM    6  C6  UNL     1     -33.793   6.865   3.735  1.00 20.00     0.139 C 
BRANCH   6   7
HETATM    7  C5  UNL     1     -33.328   6.568   2.297  1.00 20.00     0.029 C 
HETATM    8  C2  UNL     1     -32.673   7.779   1.641  1.00 20.00     0.007 C 
ENDBRANCH   6   7
BRANCH   6   9
HETATM    9  O9  UNL     1     -32.665   7.355   4.466  1.00 20.00    -0.394 OA
HETATM   10  H22 UNL     1     -32.000   6.651   4.441  1.00 20.00     0.210 HD
ENDBRANCH   6   9
ENDBRANCH   4   6
TORSDOF 3
