REMARK  4 active torsions:
REMARK  status: ('A' for Active; 'I' for Inactive)
REMARK    1  A    between atoms: C4_4  and  C9_9 
REMARK    2  A    between atoms: C7_7  and  C8_8 
REMARK    3  A    between atoms: C8_8  and  C9_9 
REMARK    4  A    between atoms: C9_9  and  O11_11 
ROOT
HETATM    1  C1  UNL     1     -33.767   5.364   3.679  1.00 20.00     0.067 C 
HETATM    2  C8  UNL     1     -33.597   6.823   3.884  1.00 20.00     0.126 C 
HETATM    3  N10 UNL     1     -33.904   4.222   3.521  1.00 20.00    -0.197 NA
ENDROOT
BRANCH   2   4
HETATM    4  C7  UNL     1     -33.481   7.106   5.402  1.00 20.00     0.018 C 
HETATM    5  C5  UNL     1     -34.676   6.591   6.200  1.00 20.00     0.006 C 
ENDBRANCH   2   4
BRANCH   2   6
HETATM    6  C9  UNL     1     -32.379   7.364   3.064  1.00 20.00     0.074 C 
HETATM    7  C6  UNL     1     -31.345   8.002   3.974  1.00 20.00     0.047 C 
BRANCH   6   8
HETATM    8  C4  UNL     1     -32.811   8.405   2.013  1.00 20.00     0.021 A 
HETATM    9  C2  UNL     1     -32.005   8.593   0.758  1.00 20.00     0.008 A 
HETATM   10  C3  UNL     1     -33.366   7.958   0.689  1.00 20.00     0.008 A 
ENDBRANCH   6   8
BRANCH   6  11
HETATM   11  O11 UNL     1     -31.760   6.271   2.378  1.00 20.00    -0.388 OA
HETATM   12  H26 UNL     1     -31.000   6.643   1.908  1.00 20.00     0.210 HD
ENDBRANCH   6  11
ENDBRANCH   2   6
TORSDOF 4
