REMARK  4 active torsions:
REMARK  status: ('A' for Active; 'I' for Inactive)
REMARK    1  A    between atoms: C5_5  and  C7_7 
REMARK    2  A    between atoms: C6_6  and  C8_8 
REMARK    3  A    between atoms: C7_7  and  C8_8 
REMARK    4  A    between atoms: C8_8  and  O10_10 
ROOT
HETATM    1  C1  UNL     1     -33.574   7.153   5.055  1.00 20.00     0.067 C 
HETATM    2  C7  UNL     1     -33.666   6.025   4.094  1.00 20.00     0.126 C 
HETATM    3  N9  UNL     1     -33.499   8.034   5.807  1.00 20.00    -0.197 NA
ENDROOT
BRANCH   2   4
HETATM    4  C5  UNL     1     -34.101   6.550   2.709  1.00 20.00     0.018 C 
HETATM    5  C2  UNL     1     -34.119   5.462   1.638  1.00 20.00     0.006 C 
ENDBRANCH   2   4
BRANCH   2   6
HETATM    6  C8  UNL     1     -34.584   4.889   4.660  1.00 20.00     0.070 C 
HETATM    7  C4  UNL     1     -34.642   4.880   6.194  1.00 20.00     0.047 C 
BRANCH   6   8
HETATM    8  C6  UNL     1     -34.149   3.502   4.116  1.00 20.00     0.034 C 
HETATM    9  C3  UNL     1     -35.072   2.346   4.495  1.00 20.00     0.008 C 
ENDBRANCH   6   8
BRANCH   6  10
HETATM   10  O10 UNL     1     -35.922   5.131   4.193  1.00 20.00    -0.389 OA
HETATM   11  H25 UNL     1     -36.458   4.405   4.537  1.00 20.00     0.210 HD
ENDBRANCH   6  10
ENDBRANCH   2   6
TORSDOF 4
