REMARK  1 active torsions:
REMARK  status: ('A' for Active; 'I' for Inactive)
REMARK    1  A    between atoms: C6_6  and  C10_10 
ROOT
HETATM    1  C1  UNL     1     -34.063   4.688   3.403  1.00 20.00    -0.025 A 
HETATM    2  C2  UNL     1     -33.174   5.180   2.524  1.00 20.00    -0.020 A 
HETATM    3  C3  UNL     1     -32.250   7.112   3.948  1.00 20.00     0.020 A 
HETATM    4  C4  UNL     1     -34.536   5.794   4.323  1.00 20.00     0.009 A 
HETATM    5  C5  UNL     1     -33.756   7.029   3.885  1.00 20.00     0.006 A 
HETATM    6  C6  UNL     1     -32.912   6.628   2.682  1.00 20.00    -0.015 A 
HETATM    7  C7  UNL     1     -34.322   5.468   5.793  1.00 20.00     0.014 C 
ENDROOT
BRANCH   6   8
HETATM    8  C10 UNL     1     -32.905   7.493   1.463  1.00 20.00    -0.010 C 
HETATM    9  C8  UNL     1     -32.653   8.970   1.814  1.00 20.00     0.010 C 
HETATM   10  C9  UNL     1     -31.856   7.026   0.439  1.00 20.00     0.010 C 
ENDBRANCH   6   8
TORSDOF 1
