REMARK  1 active torsions:
REMARK  status: ('A' for Active; 'I' for Inactive)
REMARK    1  A    between atoms: C6_6  and  C10_10 
ROOT
HETATM    1  C1  UNL     1     -31.583   7.722   3.000  1.00 20.00    -0.025 A 
HETATM    2  C2  UNL     1     -32.200   7.180   4.062  1.00 20.00    -0.020 A 
HETATM    3  C3  UNL     1     -33.118   5.070   2.910  1.00 20.00     0.020 A 
HETATM    4  C4  UNL     1     -32.266   7.273   1.724  1.00 20.00     0.009 A 
HETATM    5  C5  UNL     1     -33.399   6.365   2.191  1.00 20.00     0.006 A 
HETATM    6  C6  UNL     1     -33.359   6.327   3.712  1.00 20.00    -0.015 A 
HETATM    7  C7  UNL     1     -32.790   8.465   0.932  1.00 20.00     0.014 C 
ENDROOT
BRANCH   6   8
HETATM    8  C10 UNL     1     -34.626   6.483   4.487  1.00 20.00    -0.010 C 
HETATM    9  C8  UNL     1     -35.731   5.547   3.967  1.00 20.00     0.010 C 
HETATM   10  C9  UNL     1     -34.410   6.230   5.990  1.00 20.00     0.010 C 
ENDBRANCH   6   8
TORSDOF 1
