REMARK  0 active torsions:
REMARK  status: ('A' for Active; 'I' for Inactive)
ROOT
HETATM    1  C1  UNL     1     -33.711   5.592   3.047  1.00 20.00    -0.058 C 
HETATM    2  C2  UNL     1     -32.771   6.712   3.009  1.00 20.00    -0.061 C 
HETATM    3  C3  UNL     1     -34.216   6.102   5.446  1.00 20.00    -0.085 C 
HETATM    4  C4  UNL     1     -33.615   4.534   2.225  1.00 20.00     0.020 C 
HETATM    5  C5  UNL     1     -32.436   7.349   1.876  1.00 20.00     0.019 C 
HETATM    6  C6  UNL     1     -34.456   5.431   6.582  1.00 20.00     0.014 C 
HETATM    7  C7  UNL     1     -34.783   5.678   4.112  1.00 20.00     0.071 C 
HETATM    8  C8  UNL     1     -32.225   7.136   4.355  1.00 20.00     0.042 C 
HETATM    9  C9  UNL     1     -33.334   7.324   5.396  1.00 20.00     0.038 C 
ENDROOT
TORSDOF 0
