REMARK  4 active torsions:
REMARK  status: ('A' for Active; 'I' for Inactive)
REMARK    1  A    between atoms: C2_2  and  C9_9 
REMARK    2  A    between atoms: C5_5  and  C9_9 
REMARK    3  A    between atoms: C8_8  and  C9_9 
REMARK    4  A    between atoms: C9_9  and  O10_10 
ROOT
HETATM    1  C9  UNL     1     -33.416   6.778   3.345  1.00 20.00     0.083 C 
ENDROOT
BRANCH   1   2
HETATM    2  C2  UNL     1     -33.783   5.287   3.339  1.00 20.00    -0.059 C 
HETATM    3  C1  UNL     1     -33.030   4.332   2.765  1.00 20.00     0.017 C 
HETATM    4  C6  UNL     1     -35.063   4.891   4.034  1.00 20.00     0.046 C 
ENDBRANCH   1   2
BRANCH   1   5
HETATM    5  C5  UNL     1     -33.933   7.602   2.175  1.00 20.00     0.024 A 
HETATM    6  C3  UNL     1     -33.732   9.092   2.150  1.00 20.00     0.008 A 
HETATM    7  C4  UNL     1     -32.970   8.215   1.196  1.00 20.00     0.008 A 
ENDBRANCH   1   5
BRANCH   1   8
HETATM    8  C8  UNL     1     -33.816   7.464   4.679  1.00 20.00     0.038 C 
HETATM    9  C7  UNL     1     -33.161   6.889   5.929  1.00 20.00     0.008 C 
ENDBRANCH   1   8
BRANCH   1  10
HETATM   10  O10 UNL     1     -31.979   6.868   3.286  1.00 20.00    -0.385 OA
HETATM   11  H26 UNL     1     -31.724   6.431   2.464  1.00 20.00     0.211 HD
ENDBRANCH   1  10
TORSDOF 4
