REMARK  2 active torsions:
REMARK  status: ('A' for Active; 'I' for Inactive)
REMARK    1  A    between atoms: C2_2  and  C9_9 
REMARK    2  A    between atoms: C6_6  and  C9_9 
ROOT
HETATM    1  C3  UNL     1     -33.018   4.771   2.943  1.00 20.00     0.006 C 
HETATM    2  C4  UNL     1     -34.298   4.268   3.596  1.00 20.00     0.016 C 
HETATM    3  C5  UNL     1     -34.555   6.642   3.070  1.00 20.00     0.020 C 
HETATM    4  C6  UNL     1     -33.493   5.996   2.166  1.00 20.00    -0.010 C 
HETATM    5  C7  UNL     1     -35.017   5.540   4.026  1.00 20.00     0.058 C 
HETATM    6 BR10 UNL     1     -34.512   5.996   5.862  1.00 20.00    -0.091 Br
ENDROOT
BRANCH   4   7
HETATM    7  C9  UNL     1     -32.362   6.943   1.800  1.00 20.00     0.037 C 
BRANCH   7   8
HETATM    8  C2  UNL     1     -32.838   8.161   1.046  1.00 20.00    -0.093 C 
HETATM    9  C1  UNL     1     -32.883   8.182  -0.296  1.00 20.00     0.014 C 
HETATM   10  C8  UNL     1     -33.226   9.361   1.860  1.00 20.00     0.042 C 
ENDBRANCH   7   8
ENDBRANCH   4   7
TORSDOF 2
