REMARK  3 active torsions:
REMARK  status: ('A' for Active; 'I' for Inactive)
REMARK    1  A    between atoms: C2_2  and  C10_10 
REMARK    2  A    between atoms: C5_5  and  C10_10 
REMARK    3  A    between atoms: C7_7  and  O11_11 
ROOT
HETATM    1  C3  UNL     1     -33.686   5.549   2.372  1.00 20.00     0.008 C 
HETATM    2  C4  UNL     1     -33.763   4.417   3.398  1.00 20.00     0.032 C 
HETATM    3  C5  UNL     1     -33.208   6.778   3.149  1.00 20.00    -0.004 C 
HETATM    4  C6  UNL     1     -33.836   6.564   4.530  1.00 20.00     0.015 C 
HETATM    5  C7  UNL     1     -33.587   5.073   4.769  1.00 20.00     0.122 C 
HETATM    6  C9  UNL     1     -33.233   7.442   5.619  1.00 20.00     0.013 C 
ENDROOT
BRANCH   3   7
HETATM    7  C10 UNL     1     -33.612   8.082   2.479  1.00 20.00     0.038 C 
BRANCH   7   8
HETATM    8  C2  UNL     1     -32.696   8.464   1.342  1.00 20.00    -0.093 C 
HETATM    9  C1  UNL     1     -31.632   7.714   1.017  1.00 20.00     0.014 C 
HETATM   10  C8  UNL     1     -33.007   9.738   0.611  1.00 20.00     0.042 C 
ENDBRANCH   7   8
ENDBRANCH   3   7
BRANCH   5  11
HETATM   11  O11 UNL     1     -34.509   4.529   5.697  1.00 20.00    -0.395 OA
HETATM   12  H29 UNL     1     -34.327   3.576   5.754  1.00 20.00     0.210 HD
ENDBRANCH   5  11
TORSDOF 3
