REMARK  2 active torsions:
REMARK  status: ('A' for Active; 'I' for Inactive)
REMARK    1  A    between atoms: C7_7  and  C8_8 
REMARK    2  A    between atoms: C7_7  and  N9_9 
ROOT
HETATM    1  C1  UNL     1     -33.021   5.448   2.916  1.00 20.00     0.277 C 
HETATM    2  C2  UNL     1     -32.852   7.154   4.469  1.00 20.00     0.277 C 
HETATM    3  C3  UNL     1     -34.224   5.245   3.845  1.00 20.00     0.015 C 
HETATM    4  C4  UNL     1     -34.110   6.382   4.881  1.00 20.00     0.015 C 
HETATM    5  C5  UNL     1     -34.294   3.820   4.379  1.00 20.00     0.012 C 
HETATM    6  C6  UNL     1     -34.077   5.985   6.351  1.00 20.00     0.012 C 
HETATM    7  N9  UNL     1     -32.642   6.861   3.045  1.00 20.00     0.090 N 
ENDROOT
BRANCH   7   8
HETATM    8  C7  UNL     1     -33.450   7.725   2.184  1.00 20.00     0.287 C 
BRANCH   8   9
HETATM    9  C8  UNL     1     -32.927   7.783   0.759  1.00 20.00     0.144 C 
HETATM   10 CL10 UNL     1     -33.932   8.847  -0.257  1.00 20.00    -0.129 Cl
ENDBRANCH   8   9
ENDBRANCH   7   8
TORSDOF 2
