REMARK  3 active torsions:
REMARK  status: ('A' for Active; 'I' for Inactive)
REMARK    1  A    between atoms: C2_2  and  C9_9 
REMARK    2  A    between atoms: C6_6  and  C9_9 
REMARK    3  A    between atoms: C9_9  and  N10_10 
ROOT
HETATM    1  C9  UNL     1     -33.314   7.179   2.894  1.00 20.00     0.254 C 
ENDROOT
BRANCH   1   2
HETATM    2  C2  UNL     1     -33.860   5.805   3.244  1.00 20.00    -0.060 C 
HETATM    3  C1  UNL     1     -34.966   5.673   3.996  1.00 20.00     0.016 C 
HETATM    4  C7  UNL     1     -33.131   4.590   2.737  1.00 20.00     0.044 C 
ENDBRANCH   1   2
BRANCH   1   5
HETATM    5  C6  UNL     1     -33.307   7.425   1.398  1.00 20.00     0.049 C 
HETATM    6  C3  UNL     1     -32.118   6.830   0.677  1.00 20.00     0.035 C 
HETATM    7  C4  UNL     1     -32.116   7.620  -0.615  1.00 20.00     0.168 C 
HETATM    8  O11 UNL     1     -32.632   8.923  -0.306  1.00 20.00    -0.391 OA
HETATM    9  C5  UNL     1     -33.186   8.890   1.019  1.00 20.00     0.174 C 
ENDBRANCH   1   5
BRANCH   1  10
HETATM   10  N10 UNL     1     -31.968   7.396   3.433  1.00 20.00     0.088 N 
HETATM   11  C8  UNL     1     -32.032   7.742   4.843  1.00 20.00     0.307 C 
HETATM   12  H28 UNL     1     -31.527   8.151   2.915  1.00 20.00     0.316 HD
ENDBRANCH   1  10
TORSDOF 3
