REMARK  2 active torsions:
REMARK  status: ('A' for Active; 'I' for Inactive)
REMARK    1  A    between atoms: C7_7  and  C8_8 
REMARK    2  A    between atoms: C7_7  and  N9_9 
ROOT
HETATM    1  C1  UNL     1     -33.228   7.429   4.306  1.00 20.00     0.277 C 
HETATM    2  C2  UNL     1     -32.931   5.702   2.757  1.00 20.00     0.277 C 
HETATM    3  C3  UNL     1     -33.971   6.203   4.860  1.00 20.00     0.015 C 
HETATM    4  C4  UNL     1     -33.452   5.025   4.019  1.00 20.00     0.015 C 
HETATM    5  C5  UNL     1     -33.737   5.994   6.351  1.00 20.00     0.012 C 
HETATM    6  C6  UNL     1     -34.511   3.972   3.731  1.00 20.00     0.012 C 
HETATM    7  N9  UNL     1     -32.285   6.887   3.322  1.00 20.00     0.090 N 
ENDROOT
BRANCH   7   8
HETATM    8  C7  UNL     1     -31.915   7.860   2.305  1.00 20.00     0.287 C 
BRANCH   8   9
HETATM    9  C8  UNL     1     -33.099   8.301   1.461  1.00 20.00     0.144 C 
HETATM   10 CL10 UNL     1     -32.608   9.487   0.226  1.00 20.00    -0.129 Cl
ENDBRANCH   8   9
ENDBRANCH   7   8
TORSDOF 2
