REMARK  3 active torsions:
REMARK  status: ('A' for Active; 'I' for Inactive)
REMARK    1  A    between atoms: C2_2  and  C9_9 
REMARK    2  A    between atoms: C3_3  and  C5_5 
REMARK    3  A    between atoms: C3_3  and  C9_9 
ROOT
HETATM    1  C3  UNL     1     -33.219   6.194   2.607  1.00 20.00     0.135 C 
HETATM    2  O10 UNL     1     -33.496   5.094   2.132  1.00 20.00    -0.297 OA
ENDROOT
BRANCH   1   3
HETATM    3  C5  UNL     1     -33.890   6.684   3.864  1.00 20.00     0.060 A 
HETATM    4  C4  UNL     1     -33.026   7.146   4.982  1.00 20.00     0.017 A 
HETATM    5  C6  UNL     1     -33.765   5.839   5.094  1.00 20.00    -0.007 A 
HETATM    6  C8  UNL     1     -34.934   5.714   6.009  1.00 20.00     0.011 C 
ENDBRANCH   1   3
BRANCH   1   7
HETATM    7  C9  UNL     1     -32.232   7.156   1.960  1.00 20.00     0.111 C 
BRANCH   7   8
HETATM    8  C2  UNL     1     -32.889   8.016   0.916  1.00 20.00    -0.086 C 
HETATM    9  C1  UNL     1     -33.433   9.204   1.224  1.00 20.00     0.014 C 
HETATM   10  C7  UNL     1     -32.879   7.498  -0.494  1.00 20.00     0.043 C 
ENDBRANCH   7   8
ENDBRANCH   1   7
TORSDOF 3
