REMARK  4 active torsions:
REMARK  status: ('A' for Active; 'I' for Inactive)
REMARK    1  A    between atoms: C2_2  and  C7_7 
REMARK    2  A    between atoms: C6_6  and  C7_7 
REMARK    3  A    between atoms: C6_6  and  S9_9 
REMARK    4  A    between atoms: C7_7  and  N8_8 
ROOT
HETATM    1  C7  UNL     1     -33.896   6.566   3.845  1.00 20.00     0.257 C 
ENDROOT
BRANCH   1   2
HETATM    2  C2  UNL     1     -33.869   5.086   3.486  1.00 20.00    -0.060 C 
HETATM    3  C1  UNL     1     -34.772   4.234   4.000  1.00 20.00     0.016 C 
HETATM    4  C3  UNL     1     -32.806   4.593   2.541  1.00 20.00     0.044 C 
ENDBRANCH   1   2
BRANCH   1   5
HETATM    5  C6  UNL     1     -34.108   7.502   2.641  1.00 20.00     0.113 C 
BRANCH   5   6
HETATM    6  S9  UNL     1     -32.573   7.802   1.706  1.00 20.00    -0.171 SA
HETATM    7  C5  UNL     1     -33.320   8.323   0.146  1.00 20.00     0.089 C 
ENDBRANCH   5   6
ENDBRANCH   1   5
BRANCH   1   8
HETATM    8  N8  UNL     1     -34.935   6.837   4.850  1.00 20.00     0.088 N 
HETATM    9  C4  UNL     1     -34.467   6.471   6.174  1.00 20.00     0.307 C 
HETATM   10  H24 UNL     1     -35.157   7.827   4.824  1.00 20.00     0.316 HD
ENDBRANCH   1   8
TORSDOF 4
