REMARK  2 active torsions:
REMARK  status: ('A' for Active; 'I' for Inactive)
REMARK    1  A    between atoms: C3_3  and  C11_11 
REMARK    2  A    between atoms: C9_9  and  C11_11 
ROOT
HETATM    1  C1  UNL     1     -34.190   6.125   5.093  1.00 20.00     0.127 C 
HETATM    2  C4  UNL     1     -35.446   5.740   4.343  1.00 20.00     0.078 C 
HETATM    3  C5  UNL     1     -33.077   6.841   4.345  1.00 20.00     0.083 C 
HETATM    4  C6  UNL     1     -35.244   4.593   3.357  1.00 20.00     0.007 C 
HETATM    5  C7  UNL     1     -33.811   4.339   2.891  1.00 20.00     0.001 C 
HETATM    6  C8  UNL     1     -33.139   5.499   2.157  1.00 20.00     0.005 C 
HETATM    7  C9  UNL     1     -33.243   6.884   2.820  1.00 20.00    -0.004 C 
HETATM    8  O12 UNL     1     -34.077   5.885   6.297  1.00 20.00    -0.298 OA
ENDROOT
BRANCH   7   9
HETATM    9  C11 UNL     1     -32.207   7.830   2.205  1.00 20.00     0.037 C 
BRANCH   9  10
HETATM   10  C3  UNL     1     -32.621   8.328   0.847  1.00 20.00    -0.093 C 
HETATM   11  C2  UNL     1     -32.273   7.674  -0.272  1.00 20.00     0.014 C 
HETATM   12  C10 UNL     1     -33.401   9.611   0.794  1.00 20.00     0.042 C 
ENDBRANCH   9  10
ENDBRANCH   7   9
TORSDOF 2
