REMARK  2 active torsions:
REMARK  status: ('A' for Active; 'I' for Inactive)
REMARK    1  A    between atoms: C9_9  and  C10_10 
REMARK    2  A    between atoms: C9_9  and  N12_12 
ROOT
HETATM    1  C1  UNL     1     -33.379   8.969   0.165  1.00 20.00     0.065 C 
HETATM    2  C8  UNL     1     -31.927   7.012   0.552  1.00 20.00     0.027 C 
HETATM    3  C10 UNL     1     -32.884   8.022   1.183  1.00 20.00     0.114 C 
HETATM    4  N11 UNL     1     -33.768   9.715  -0.635  1.00 20.00    -0.197 NA
ENDROOT
BRANCH   3   5
HETATM    5  C9  UNL     1     -34.038   7.354   1.938  1.00 20.00     0.253 C 
BRANCH   5   6
HETATM    6  N12 UNL     1     -33.597   6.801   3.256  1.00 20.00    -0.069 N 
HETATM    7  C2  UNL     1     -34.737   6.519   4.210  1.00 20.00     0.239 C 
HETATM    8  C4  UNL     1     -34.242   5.347   5.046  1.00 20.00     0.012 C 
HETATM    9  C5  UNL     1     -33.450   4.509   4.034  1.00 20.00     0.012 C 
HETATM   10  C6  UNL     1     -33.367   5.813   6.212  1.00 20.00     0.012 C 
HETATM   11  C3  UNL     1     -32.750   5.544   3.154  1.00 20.00     0.239 C 
HETATM   12  C7  UNL     1     -34.360   3.599   3.205  1.00 20.00     0.012 C 
HETATM   13  H31 UNL     1     -33.010   7.524   3.701  1.00 20.00     0.280 HD
ENDBRANCH   5   6
ENDBRANCH   3   5
TORSDOF 2
