REMARK  2 active torsions:
REMARK  status: ('A' for Active; 'I' for Inactive)
REMARK    1  A    between atoms: C2_2  and  C3_3 
REMARK    2  A    between atoms: C3_3  and  C5_5 
ROOT
HETATM    1  C3  UNL     1     -33.947   6.363   3.618  1.00 20.00     0.159 C 
HETATM    2  O9  UNL     1     -33.751   7.544   3.911  1.00 20.00    -0.292 OA
ENDROOT
BRANCH   1   3
HETATM    3  C2  UNL     1     -33.237   5.754   2.444  1.00 20.00    -0.025 C 
HETATM    4  C1  UNL     1     -32.928   4.451   2.415  1.00 20.00     0.022 C 
HETATM    5  C7  UNL     1     -32.897   6.678   1.313  1.00 20.00     0.051 C 
ENDBRANCH   1   3
BRANCH   1   6
HETATM    6  C5  UNL     1     -34.898   5.524   4.434  1.00 20.00     0.064 A 
HETATM    7  C4  UNL     1     -34.328   4.665   5.507  1.00 20.00     0.018 A 
HETATM    8  C6  UNL     1     -35.149   5.873   5.860  1.00 20.00    -0.006 A 
HETATM    9  C8  UNL     1     -34.513   7.033   6.547  1.00 20.00     0.011 C 
ENDBRANCH   1   6
TORSDOF 2
