REMARK  3 active torsions:
REMARK  status: ('A' for Active; 'I' for Inactive)
REMARK    1  A    between atoms: C2_2  and  C7_7 
REMARK    2  A    between atoms: C5_5  and  C7_7 
REMARK    3  A    between atoms: C7_7  and  O8_8 
ROOT
HETATM    1  C7  UNL     1     -33.847   6.632   4.517  1.00 20.00     0.150 C 
ENDROOT
BRANCH   1   2
HETATM    2  C2  UNL     1     -33.043   6.320   3.275  1.00 20.00    -0.064 C 
HETATM    3  C1  UNL     1     -33.116   5.114   2.688  1.00 20.00     0.016 C 
HETATM    4  C6  UNL     1     -32.164   7.401   2.710  1.00 20.00     0.045 C 
ENDBRANCH   1   2
BRANCH   1   5
HETATM    5  C5  UNL     1     -34.673   5.444   4.998  1.00 20.00     0.019 A 
HETATM    6  C3  UNL     1     -34.053   4.399   5.883  1.00 20.00     0.008 A 
HETATM    7  C4  UNL     1     -35.082   5.342   6.442  1.00 20.00     0.008 A 
ENDBRANCH   1   5
BRANCH   1   8
HETATM    8  O8  UNL     1     -32.959   7.041   5.555  1.00 20.00    -0.391 OA
HETATM    9  H20 UNL     1     -33.510   7.231   6.330  1.00 20.00     0.210 HD
ENDBRANCH   1   8
TORSDOF 3
