REMARK  5 active torsions:
REMARK  status: ('A' for Active; 'I' for Inactive)
REMARK    1  A    between atoms: C2_2  and  C5_5 
REMARK    2  A    between atoms: C5_5  and  C7_7 
REMARK    3  A    between atoms: C6_6  and  C9_9 
REMARK    4  A    between atoms: C7_7  and  C8_8 
REMARK    5  A    between atoms: C8_8  and  C9_9 
ROOT
HETATM    1  C7  UNL     1     -32.589   6.722   2.404  1.00 20.00     0.006 C 
ENDROOT
BRANCH   1   2
HETATM    2  C5  UNL     1     -33.412   7.472   1.349  1.00 20.00     0.033 C 
BRANCH   2   3
HETATM    3  C2  UNL     1     -32.592   8.274   0.364  1.00 20.00    -0.093 C 
HETATM    4  C1  UNL     1     -32.784   9.592   0.202  1.00 20.00     0.014 C 
HETATM    5  C3  UNL     1     -31.576   7.526  -0.450  1.00 20.00     0.042 C 
ENDBRANCH   2   3
ENDBRANCH   1   2
BRANCH   1   6
HETATM    6  C8  UNL     1     -33.450   5.848   3.326  1.00 20.00     0.020 C 
BRANCH   6   7
HETATM    7  C9  UNL     1     -34.512   6.645   4.102  1.00 20.00     0.082 C 
HETATM    8 CL10 UNL     1     -33.730   7.920   5.090  1.00 20.00    -0.125 Cl
BRANCH   7   9
HETATM    9  C6  UNL     1     -35.344   5.711   4.995  1.00 20.00     0.016 C 
HETATM   10  C4  UNL     1     -34.515   4.948   6.019  1.00 20.00     0.006 C 
ENDBRANCH   7   9
ENDBRANCH   6   7
ENDBRANCH   1   6
TORSDOF 5
