REMARK  2 active torsions:
REMARK  status: ('A' for Active; 'I' for Inactive)
REMARK    1  A    between atoms: C2_2  and  C7_7 
REMARK    2  A    between atoms: C7_7  and  O11_11 
ROOT
HETATM    1  C3  UNL     1     -34.080   4.982   2.723  1.00 20.00     0.073 C 
HETATM    2  C4  UNL     1     -34.069   7.010   4.227  1.00 20.00     0.073 C 
HETATM    3  C5  UNL     1     -32.586   5.218   2.479  1.00 20.00     0.275 C 
HETATM    4  C6  UNL     1     -32.576   7.165   3.923  1.00 20.00     0.275 C 
HETATM    5  C7  UNL     1     -34.544   5.566   4.057  1.00 20.00     0.083 C 
HETATM    6  C9  UNL     1     -32.616   7.448   1.508  1.00 20.00     0.309 C 
HETATM    7  N10 UNL     1     -32.168   6.618   2.623  1.00 20.00     0.084 N 
ENDROOT
BRANCH   5   8
HETATM    8  C2  UNL     1     -34.111   4.701   5.208  1.00 20.00    -0.059 C 
HETATM    9  C1  UNL     1     -33.409   3.573   5.022  1.00 20.00     0.017 C 
HETATM   10  C8  UNL     1     -34.508   5.172   6.575  1.00 20.00     0.046 C 
ENDBRANCH   5   8
BRANCH   5  11
HETATM   11  O11 UNL     1     -35.966   5.512   4.110  1.00 20.00    -0.385 OA
HETATM   12  H28 UNL     1     -36.285   6.062   3.379  1.00 20.00     0.211 HD
ENDBRANCH   5  11
TORSDOF 2
