REMARK  2 active torsions:
REMARK  status: ('A' for Active; 'I' for Inactive)
REMARK    1  A    between atoms: C1_1  and  C7_7 
REMARK    2  A    between atoms: C7_7  and  O11_11 
ROOT
HETATM    1  C3  UNL     1     -34.246   5.481   5.003  1.00 20.00     0.029 C 
HETATM    2  C4  UNL     1     -34.404   6.729   4.136  1.00 20.00     0.046 C 
HETATM    3  C5  UNL     1     -34.365   4.225   4.153  1.00 20.00     0.167 C 
HETATM    4  C6  UNL     1     -33.596   5.330   2.197  1.00 20.00     0.209 C 
HETATM    5  C7  UNL     1     -33.474   6.679   2.915  1.00 20.00     0.097 C 
HETATM    6  O10 UNL     1     -33.402   4.239   3.102  1.00 20.00    -0.388 OA
ENDROOT
BRANCH   5   7
HETATM    7  C1  UNL     1     -33.758   7.804   1.967  1.00 20.00     0.015 C 
HETATM    8  C2  UNL     1     -33.143   8.073   0.800  1.00 20.00    -0.088 C 
HETATM    9  C8  UNL     1     -33.551   9.250  -0.042  1.00 20.00     0.042 C 
HETATM   10  C9  UNL     1     -32.020   7.248   0.237  1.00 20.00     0.042 C 
ENDBRANCH   5   7
BRANCH   5  11
HETATM   11  O11 UNL     1     -32.120   6.805   3.363  1.00 20.00    -0.384 OA
HETATM   12  H27 UNL     1     -32.056   7.666   3.803  1.00 20.00     0.211 HD
ENDBRANCH   5  11
TORSDOF 2
