REMARK  3 active torsions:
REMARK  status: ('A' for Active; 'I' for Inactive)
REMARK    1  A    between atoms: C2_2  and  C3_3 
REMARK    2  A    between atoms: C3_3  and  C7_7 
REMARK    3  A    between atoms: C8_8  and  C11_11 
ROOT
HETATM    1  C4  UNL     1     -32.553   5.356   3.453  1.00 20.00     0.013 C 
HETATM    2  C5  UNL     1     -31.892   6.685   3.113  1.00 20.00     0.005 C 
HETATM    3  C6  UNL     1     -34.014   6.685   1.997  1.00 20.00     0.017 C 
HETATM    4  C7  UNL     1     -34.001   5.506   2.979  1.00 20.00     0.060 C 
HETATM    5  C8  UNL     1     -32.544   7.058   1.786  1.00 20.00    -0.014 C 
ENDROOT
BRANCH   4   6
HETATM    6  C3  UNL     1     -34.909   5.786   4.137  1.00 20.00     0.158 C 
HETATM    7  O12 UNL     1     -36.115   5.959   3.953  1.00 20.00    -0.292 OA
BRANCH   6   8
HETATM    8  C2  UNL     1     -34.345   5.856   5.525  1.00 20.00    -0.025 C 
HETATM    9  C1  UNL     1     -33.902   7.010   6.042  1.00 20.00     0.022 C 
HETATM   10  C9  UNL     1     -34.305   4.571   6.299  1.00 20.00     0.051 C 
ENDBRANCH   6   8
ENDBRANCH   4   6
BRANCH   5  11
HETATM   11  C11 UNL     1     -32.344   8.516   1.410  1.00 20.00     0.000 C 
HETATM   12  C10 UNL     1     -33.024   8.861   0.122  1.00 20.00     0.005 C 
ENDBRANCH   5  11
TORSDOF 3
