REMARK  3 active torsions:
REMARK  status: ('A' for Active; 'I' for Inactive)
REMARK    1  A    between atoms: C2_2  and  C10_10 
REMARK    2  A    between atoms: C5_5  and  C10_10 
REMARK    3  A    between atoms: C7_7  and  O11_11 
ROOT
HETATM    1  C3  UNL     1     -33.312   7.139   4.215  1.00 20.00     0.008 C 
HETATM    2  C4  UNL     1     -34.587   6.557   4.826  1.00 20.00     0.032 C 
HETATM    3  C5  UNL     1     -33.270   6.610   2.778  1.00 20.00    -0.004 C 
HETATM    4  C6  UNL     1     -33.811   5.184   2.960  1.00 20.00     0.015 C 
HETATM    5  C7  UNL     1     -34.962   5.351   3.960  1.00 20.00     0.122 C 
HETATM    6  C9  UNL     1     -34.232   4.475   1.680  1.00 20.00     0.013 C 
ENDROOT
BRANCH   3   7
HETATM    7  C10 UNL     1     -34.082   7.495   1.832  1.00 20.00     0.038 C 
BRANCH   7   8
HETATM    8  C2  UNL     1     -33.327   8.723   1.386  1.00 20.00    -0.093 C 
HETATM    9  C1  UNL     1     -33.413   9.882   2.058  1.00 20.00     0.014 C 
HETATM   10  C8  UNL     1     -32.502   8.603   0.137  1.00 20.00     0.042 C 
ENDBRANCH   7   8
ENDBRANCH   3   7
BRANCH   5  11
HETATM   11  O11 UNL     1     -35.107   4.193   4.767  1.00 20.00    -0.395 OA
HETATM   12  H29 UNL     1     -35.812   4.388   5.404  1.00 20.00     0.210 HD
ENDBRANCH   5  11
TORSDOF 3
