REMARK  4 active torsions:
REMARK  status: ('A' for Active; 'I' for Inactive)
REMARK    1  A    between atoms: C2_2  and  C7_7 
REMARK    2  A    between atoms: C6_6  and  C7_7 
REMARK    3  A    between atoms: C6_6  and  S9_9 
REMARK    4  A    between atoms: C7_7  and  N8_8 
ROOT
HETATM    1  C7  UNL     1     -33.433   6.216   3.554  1.00 20.00     0.257 C 
ENDROOT
BRANCH   1   2
HETATM    2  C2  UNL     1     -34.104   6.136   4.919  1.00 20.00    -0.060 C 
HETATM    3  C1  UNL     1     -35.160   5.331   5.123  1.00 20.00     0.016 C 
HETATM    4  C3  UNL     1     -33.559   6.980   6.040  1.00 20.00     0.044 C 
ENDBRANCH   1   2
BRANCH   1   5
HETATM    5  C6  UNL     1     -33.468   7.615   2.913  1.00 20.00     0.113 C 
BRANCH   5   6
HETATM    6  S9  UNL     1     -32.632   7.667   1.295  1.00 20.00    -0.171 SA
HETATM    7  C5  UNL     1     -32.928   9.407   0.909  1.00 20.00     0.089 C 
ENDBRANCH   5   6
ENDBRANCH   1   5
BRANCH   1   8
HETATM    8  N8  UNL     1     -34.041   5.258   2.617  1.00 20.00     0.088 N 
HETATM    9  C4  UNL     1     -33.522   3.923   2.850  1.00 20.00     0.307 C 
HETATM   10  H24 UNL     1     -33.823   5.553   1.671  1.00 20.00     0.316 HD
ENDBRANCH   1   8
TORSDOF 4
