REMARK  3 active torsions:
REMARK  status: ('A' for Active; 'I' for Inactive)
REMARK    1  A    between atoms: C2_2  and  C9_9 
REMARK    2  A    between atoms: C7_7  and  C9_9 
REMARK    3  A    between atoms: C9_9  and  O11_11 
ROOT
HETATM    1  C3  UNL     1     -33.276   8.692   2.239  1.00 20.00     0.034 C 
HETATM    2  C4  UNL     1     -32.592   6.573   1.084  1.00 20.00     0.034 C 
HETATM    3  C5  UNL     1     -33.084   9.399   0.903  1.00 20.00     0.168 C 
HETATM    4  C6  UNL     1     -32.438   7.398  -0.188  1.00 20.00     0.168 C 
HETATM    5  C7  UNL     1     -32.386   7.447   2.326  1.00 20.00     0.023 C 
HETATM    6  O10 UNL     1     -33.337   8.507  -0.183  1.00 20.00    -0.391 OA
ENDROOT
BRANCH   5   7
HETATM    7  C9  UNL     1     -32.661   6.661   3.605  1.00 20.00     0.150 C 
BRANCH   7   8
HETATM    8  C2  UNL     1     -34.084   6.158   3.685  1.00 20.00    -0.064 C 
HETATM    9  C1  UNL     1     -34.416   4.944   3.216  1.00 20.00     0.016 C 
HETATM   10  C8  UNL     1     -35.117   7.051   4.314  1.00 20.00     0.045 C 
ENDBRANCH   7   8
BRANCH   7  11
HETATM   11  O11 UNL     1     -32.396   7.491   4.733  1.00 20.00    -0.391 OA
HETATM   12  H27 UNL     1     -32.527   6.939   5.519  1.00 20.00     0.210 HD
ENDBRANCH   7  11
ENDBRANCH   5   7
TORSDOF 3
