REMARK  2 active torsions:
REMARK  status: ('A' for Active; 'I' for Inactive)
REMARK    1  A    between atoms: C2_2  and  C10_10 
REMARK    2  A    between atoms: C7_7  and  C10_10 
ROOT
HETATM    1  C3  UNL     1     -33.524   4.425   3.203  1.00 20.00     0.002 C 
HETATM    2  C4  UNL     1     -32.792   5.483   2.383  1.00 20.00     0.005 C 
HETATM    3  C5  UNL     1     -34.794   4.983   3.845  1.00 20.00     0.016 C 
HETATM    4  C6  UNL     1     -33.738   7.304   3.864  1.00 20.00     0.020 C 
HETATM    5  C7  UNL     1     -32.466   6.723   3.224  1.00 20.00    -0.010 C 
HETATM    6  C8  UNL     1     -34.561   6.270   4.631  1.00 20.00     0.058 C 
HETATM    7 BR11 UNL     1     -33.701   5.865   6.346  1.00 20.00    -0.091 Br
ENDROOT
BRANCH   5   8
HETATM    8  C10 UNL     1     -31.766   7.781   2.371  1.00 20.00     0.037 C 
BRANCH   8   9
HETATM    9  C2  UNL     1     -32.626   8.270   1.235  1.00 20.00    -0.093 C 
HETATM   10  C1  UNL     1     -32.587   7.687   0.026  1.00 20.00     0.014 C 
HETATM   11  C9  UNL     1     -33.499   9.463   1.500  1.00 20.00     0.042 C 
ENDBRANCH   8   9
ENDBRANCH   5   8
TORSDOF 2
