REMARK  0 active torsions:
REMARK  status: ('A' for Active; 'I' for Inactive)
ROOT
HETATM    1  C1  UNL     1     -32.714   6.546   1.995  1.00 20.00     0.063 A 
HETATM    2  C2  UNL     1     -32.930   8.112   3.852  1.00 20.00     0.098 A 
HETATM    3  C3  UNL     1     -33.770   5.903   4.051  1.00 20.00     0.055 A 
HETATM    4  C4  UNL     1     -33.356   5.588   2.763  1.00 20.00    -0.037 A 
HETATM    5  C5  UNL     1     -32.502   7.814   2.546  1.00 20.00     0.175 A 
HETATM    6  C6  UNL     1     -33.575   7.146   4.624  1.00 20.00     0.134 A 
HETATM    7  C7  UNL     1     -34.406   4.727   4.624  1.00 20.00     0.163 A 
HETATM    8  C8  UNL     1     -33.682   4.182   2.376  1.00 20.00     0.047 A 
HETATM    9  C9  UNL     1     -34.385   3.603   3.616  1.00 20.00     0.088 A 
HETATM   10  O10 UNL     1     -31.910   8.716   1.854  1.00 20.00    -0.288 OA
HETATM   11  O11 UNL     1     -34.877   4.679   5.745  1.00 20.00    -0.292 OA
HETATM   12  F12 UNL     1     -33.984   7.421   5.868  1.00 20.00    -0.205 F 
ENDROOT
TORSDOF 0
