REMARK  3 active torsions:
REMARK  status: ('A' for Active; 'I' for Inactive)
REMARK    1  A    between atoms: C2_2  and  C9_9 
REMARK    2  A    between atoms: C3_3  and  C5_5 
REMARK    3  A    between atoms: C3_3  and  C9_9 
ROOT
HETATM    1  C3  UNL     1     -33.348   7.137   3.340  1.00 20.00     0.135 C 
HETATM    2  O10 UNL     1     -32.215   7.224   3.812  1.00 20.00    -0.297 OA
ENDROOT
BRANCH   1   3
HETATM    3  C5  UNL     1     -34.542   6.916   4.233  1.00 20.00     0.060 A 
HETATM    4  C4  UNL     1     -34.309   6.324   5.579  1.00 20.00     0.017 A 
HETATM    5  C6  UNL     1     -35.007   5.528   4.512  1.00 20.00    -0.007 A 
HETATM    6  C8  UNL     1     -34.356   4.313   3.944  1.00 20.00     0.011 C 
ENDBRANCH   1   3
BRANCH   1   7
HETATM    7  C9  UNL     1     -33.635   7.198   1.846  1.00 20.00     0.111 C 
BRANCH   7   8
HETATM    8  C2  UNL     1     -32.694   8.130   1.132  1.00 20.00    -0.086 C 
HETATM    9  C1  UNL     1     -31.531   7.699   0.620  1.00 20.00     0.014 C 
HETATM   10  C7  UNL     1     -33.134   9.560   0.991  1.00 20.00     0.043 C 
ENDBRANCH   7   8
ENDBRANCH   1   7
TORSDOF 3
