REMARK  3 active torsions:
REMARK  status: ('A' for Active; 'I' for Inactive)
REMARK    1  A    between atoms: C1_1  and  C7_7 
REMARK    2  A    between atoms: C1_1  and  C8_8 
REMARK    3  A    between atoms: C8_8  and  O10_10 
ROOT
HETATM    1  C1  UNL     1     -33.470   5.913   2.996  1.00 20.00     0.163 C 
HETATM    2  O9  UNL     1     -33.386   5.041   2.126  1.00 20.00    -0.294 OA
ENDROOT
BRANCH   1   3
HETATM    3  C7  UNL     1     -32.876   7.300   2.762  1.00 20.00     0.050 C 
HETATM    4  C2  UNL     1     -31.440   7.335   3.272  1.00 20.00     0.017 C 
HETATM    5  C3  UNL     1     -32.948   7.646   1.279  1.00 20.00     0.017 C 
ENDBRANCH   1   3
BRANCH   1   6
HETATM    6  C8  UNL     1     -34.169   5.635   4.333  1.00 20.00     0.113 C 
HETATM    7  C4  UNL     1     -33.485   4.494   5.077  1.00 20.00     0.054 C 
HETATM    8  C5  UNL     1     -35.660   5.375   4.143  1.00 20.00     0.054 C 
BRANCH   6   9
HETATM    9  O10 UNL     1     -34.021   6.803   5.140  1.00 20.00    -0.378 OA
HETATM   10  C6  UNL     1     -34.640   6.638   6.405  1.00 20.00     0.203 C 
ENDBRANCH   6   9
ENDBRANCH   1   6
TORSDOF 3
