REMARK  3 active torsions:
REMARK  status: ('A' for Active; 'I' for Inactive)
REMARK    1  A    between atoms: C7_7  and  C8_8 
REMARK    2  A    between atoms: C7_7  and  C9_9 
REMARK    3  A    between atoms: C8_8  and  N10_10 
ROOT
HETATM    1  C1  UNL     1     -33.960   4.811   2.956  1.00 20.00     0.239 C 
HETATM    2  C2  UNL     1     -33.212   6.647   4.391  1.00 20.00     0.239 C 
HETATM    3  C3  UNL     1     -34.309   4.493   4.406  1.00 20.00     0.012 C 
HETATM    4  C4  UNL     1     -34.389   5.899   5.012  1.00 20.00     0.012 C 
HETATM    5  C5  UNL     1     -33.271   3.572   5.049  1.00 20.00     0.012 C 
HETATM    6  C6  UNL     1     -34.393   5.966   6.531  1.00 20.00     0.012 C 
HETATM    7  N10 UNL     1     -32.972   5.955   3.061  1.00 20.00    -0.070 N 
HETATM    8  H30 UNL     1     -32.034   5.534   3.106  1.00 20.00     0.279 HD
ENDROOT
BRANCH   7   9
HETATM    9  C8  UNL     1     -32.984   6.869   1.878  1.00 20.00     0.236 C 
BRANCH   9  10
HETATM   10  C7  UNL     1     -31.689   7.673   1.807  1.00 20.00     0.043 C 
BRANCH  10  11
HETATM   11  C9  UNL     1     -31.555   8.609   0.608  1.00 20.00     0.116 C 
HETATM   12 CL11 UNL     1     -32.872   9.801   0.538  1.00 20.00    -0.130 Cl
ENDBRANCH  10  11
ENDBRANCH   9  10
ENDBRANCH   7   9
TORSDOF 3
