REMARK  2 active torsions:
REMARK  status: ('A' for Active; 'I' for Inactive)
REMARK    1  A    between atoms: C3_3  and  C6_6 
REMARK    2  A    between atoms: C6_6  and  O9_9 
ROOT
HETATM    1  C2  UNL     1     -33.546   8.255   3.421  1.00 20.00     0.045 A 
HETATM    2  C5  UNL     1     -32.227   7.604   3.095  1.00 20.00     0.019 A 
HETATM    3  C6  UNL     1     -33.141   6.988   4.132  1.00 20.00     0.066 A 
HETATM    4  C8  UNL     1     -32.012   6.975   1.762  1.00 20.00     0.013 C 
ENDROOT
BRANCH   3   5
HETATM    5  C3  UNL     1     -33.890   5.672   3.939  1.00 20.00     0.024 A 
HETATM    6  C1  UNL     1     -33.402   4.367   4.511  1.00 20.00     0.012 A 
HETATM    7  C4  UNL     1     -34.683   4.974   5.019  1.00 20.00    -0.011 A 
HETATM    8  C7  UNL     1     -34.761   5.507   6.408  1.00 20.00     0.010 C 
ENDBRANCH   3   5
BRANCH   3   9
HETATM    9  O9  UNL     1     -32.702   7.186   5.495  1.00 20.00    -0.389 OA
HETATM   10  H23 UNL     1     -33.454   7.581   5.951  1.00 20.00     0.210 HD
ENDBRANCH   3   9
TORSDOF 2
