REMARK  2 active torsions:
REMARK  status: ('A' for Active; 'I' for Inactive)
REMARK    1  A    between atoms: C4_4  and  C7_7 
REMARK    2  A    between atoms: C7_7  and  C8_8 
ROOT
HETATM    1  C1  UNL     1     -34.083   4.923   4.869  1.00 20.00     0.034 C 
HETATM    2  C2  UNL     1     -34.778   5.208   6.184  1.00 20.00     0.168 C 
HETATM    3  C3  UNL     1     -33.858   7.197   5.396  1.00 20.00     0.173 C 
HETATM    4  C4  UNL     1     -34.108   6.284   4.208  1.00 20.00     0.026 C 
HETATM    5  O9  UNL     1     -34.472   6.567   6.530  1.00 20.00    -0.391 OA
ENDROOT
BRANCH   4   6
HETATM    6  C7  UNL     1     -33.100   6.449   3.087  1.00 20.00     0.067 C 
HETATM    7 BR10 UNL     1     -32.849   4.702   2.217  1.00 20.00    -0.090 Br
BRANCH   6   8
HETATM    8  C8  UNL     1     -33.432   7.522   2.031  1.00 20.00    -0.008 C 
HETATM    9  C5  UNL     1     -32.378   7.528   0.916  1.00 20.00     0.011 C 
HETATM   10  C6  UNL     1     -33.583   8.916   2.596  1.00 20.00     0.011 C 
ENDBRANCH   6   8
ENDBRANCH   4   6
TORSDOF 2
