REMARK  3 active torsions:
REMARK  status: ('A' for Active; 'I' for Inactive)
REMARK    1  A    between atoms: C3_3  and  C6_6 
REMARK    2  A    between atoms: C3_3  and  O8_8 
REMARK    3  A    between atoms: C6_6  and  C7_7 
ROOT
HETATM    1  C1  UNL     1     -34.869   6.903   4.401  1.00 20.00     0.045 A 
HETATM    2  C2  UNL     1     -34.326   5.658   5.053  1.00 20.00     0.019 A 
HETATM    3  C3  UNL     1     -33.390   6.611   4.341  1.00 20.00     0.061 A 
HETATM    4  C4  UNL     1     -34.665   4.314   4.505  1.00 20.00     0.013 C 
ENDROOT
BRANCH   3   5
HETATM    5  C6  UNL     1     -32.750   6.273   3.036  1.00 20.00     0.038 C 
BRANCH   5   6
HETATM    6  C7  UNL     1     -32.492   7.516   2.169  1.00 20.00    -0.002 C 
HETATM    7  C5  UNL     1     -31.807   7.176   0.855  1.00 20.00     0.005 C 
ENDBRANCH   5   6
ENDBRANCH   3   5
BRANCH   3   8
HETATM    8  O8  UNL     1     -32.558   7.414   5.197  1.00 20.00    -0.389 OA
HETATM    9  H22 UNL     1     -32.865   7.244   6.097  1.00 20.00     0.210 HD
ENDBRANCH   3   8
TORSDOF 3
