REMARK  3 active torsions:
REMARK  status: ('A' for Active; 'I' for Inactive)
REMARK    1  A    between atoms: C1_1  and  C7_7 
REMARK    2  A    between atoms: C1_1  and  C8_8 
REMARK    3  A    between atoms: C8_8  and  C9_9 
ROOT
HETATM    1  C3  UNL     1     -33.202   4.516   2.690  1.00 20.00     0.018 C 
HETATM    2  C8  UNL     1     -33.786   5.867   3.115  1.00 20.00     0.058 C 
ENDROOT
BRANCH   2   3
HETATM    3  C1  UNL     1     -32.745   6.948   2.796  1.00 20.00     0.131 C 
HETATM    4  O10 UNL     1     -31.949   7.350   3.643  1.00 20.00    -0.298 OA
BRANCH   3   5
HETATM    5  C7  UNL     1     -32.735   7.471   1.367  1.00 20.00     0.074 C 
HETATM    6  C2  UNL     1     -32.975   8.968   1.291  1.00 20.00     0.013 C 
ENDBRANCH   3   5
ENDBRANCH   2   3
BRANCH   2   7
HETATM    7  C9  UNL     1     -34.308   5.931   4.589  1.00 20.00    -0.041 C 
HETATM    8  C4  UNL     1     -35.784   5.484   4.650  1.00 20.00     0.015 C 
HETATM    9  C5  UNL     1     -34.200   7.337   5.208  1.00 20.00     0.015 C 
HETATM   10  C6  UNL     1     -33.494   4.960   5.471  1.00 20.00     0.015 C 
ENDBRANCH   2   7
TORSDOF 3
