REMARK  4 active torsions:
REMARK  status: ('A' for Active; 'I' for Inactive)
REMARK    1  A    between atoms: C6_6  and  C7_7 
REMARK    2  A    between atoms: C6_6  and  C9_9 
REMARK    3  A    between atoms: C8_8  and  C10_10 
REMARK    4  A    between atoms: C9_9  and  C10_10 
ROOT
HETATM    1  C5  UNL     1     -33.447   4.999   2.027  1.00 20.00     0.011 C 
HETATM    2  C9  UNL     1     -33.127   6.274   2.825  1.00 20.00     0.001 C 
ENDROOT
BRANCH   2   3
HETATM    3  C6  UNL     1     -31.779   6.896   2.385  1.00 20.00     0.009 C 
BRANCH   3   4
HETATM    4  C7  UNL     1     -31.826   7.784   1.123  1.00 20.00    -0.022 C 
HETATM    5  C1  UNL     1     -32.763   8.982   1.284  1.00 20.00     0.009 C 
HETATM    6  C2  UNL     1     -32.269   6.944  -0.080  1.00 20.00     0.009 C 
ENDBRANCH   3   4
ENDBRANCH   2   3
BRANCH   2   7
HETATM    7  C10 UNL     1     -33.201   6.010   4.360  1.00 20.00     0.089 C 
HETATM    8 CL11 UNL     1     -33.230   7.578   5.253  1.00 20.00    -0.124 Cl
BRANCH   7   9
HETATM    9  C8  UNL     1     -34.377   5.109   4.834  1.00 20.00    -0.004 C 
HETATM   10  C3  UNL     1     -35.746   5.692   4.460  1.00 20.00     0.011 C 
HETATM   11  C4  UNL     1     -34.349   4.890   6.356  1.00 20.00     0.011 C 
ENDBRANCH   7   9
ENDBRANCH   2   7
TORSDOF 4
