REMARK  4 active torsions:
REMARK  status: ('A' for Active; 'I' for Inactive)
REMARK    1  A    between atoms: C5_5  and  C8_8 
REMARK    2  A    between atoms: C6_6  and  C8_8 
REMARK    3  A    between atoms: C7_7  and  N9_9 
REMARK    4  A    between atoms: C8_8  and  N9_9 
ROOT
HETATM    1  C8  UNL     1     -33.326   6.329   2.592  1.00 20.00     0.237 C 
ENDROOT
BRANCH   1   2
HETATM    2  C5  UNL     1     -34.063   4.994   2.435  1.00 20.00     0.150 C 
HETATM    3 CL10 UNL     1     -33.093   3.639   3.075  1.00 20.00    -0.128 Cl
ENDBRANCH   1   2
BRANCH   1   4
HETATM    4  C6  UNL     1     -33.424   6.879   4.038  1.00 20.00     0.011 C 
HETATM    5  C1  UNL     1     -32.842   5.935   5.095  1.00 20.00     0.012 C 
HETATM    6  C2  UNL     1     -34.870   7.235   4.403  1.00 20.00     0.012 C 
ENDBRANCH   1   4
BRANCH   1   7
HETATM    7  N9  UNL     1     -33.800   7.292   1.622  1.00 20.00     0.093 N 
HETATM    8  H28 UNL     1     -33.951   6.830   0.722  1.00 20.00     0.316 HD
BRANCH   7   9
HETATM    9  C7  UNL     1     -32.839   8.376   1.437  1.00 20.00     0.213 C 
HETATM   10  C3  UNL     1     -33.556   9.584   0.852  1.00 20.00     0.042 C 
HETATM   11  C4  UNL     1     -31.718   7.891   0.529  1.00 20.00     0.042 C 
ENDBRANCH   7   9
ENDBRANCH   1   7
TORSDOF 4
