REMARK  3 active torsions:
REMARK  status: ('A' for Active; 'I' for Inactive)
REMARK    1  A    between atoms: C2_2  and  C6_6 
REMARK    2  A    between atoms: C3_3  and  C7_7 
REMARK    3  A    between atoms: C3_3  and  O8_8 
ROOT
HETATM    1  C1  UNL     1     -34.611   6.909   3.753  1.00 20.00     0.045 A 
HETATM    2  C2  UNL     1     -33.309   6.373   3.217  1.00 20.00     0.022 A 
HETATM    3  C3  UNL     1     -33.614   6.279   4.692  1.00 20.00     0.062 A 
ENDROOT
BRANCH   3   4
HETATM    4  C7  UNL     1     -33.909   4.953   5.309  1.00 20.00     0.034 C 
HETATM    5  C5  UNL     1     -34.106   3.862   4.288  1.00 20.00     0.008 C 
ENDBRANCH   3   4
BRANCH   3   6
HETATM    6  O8  UNL     1     -32.920   7.183   5.569  1.00 20.00    -0.389 OA
HETATM    7  H22 UNL     1     -33.604   7.614   6.098  1.00 20.00     0.210 HD
ENDBRANCH   3   6
BRANCH   2   8
HETATM    8  C6  UNL     1     -32.275   7.309   2.692  1.00 20.00     0.003 C 
HETATM    9  C4  UNL     1     -32.524   7.721   1.263  1.00 20.00     0.005 C 
ENDBRANCH   2   8
TORSDOF 3
