REMARK  3 active torsions:
REMARK  status: ('A' for Active; 'I' for Inactive)
REMARK    1  A    between atoms: C2_2  and  C6_6 
REMARK    2  A    between atoms: C3_3  and  C7_7 
REMARK    3  A    between atoms: C3_3  and  O8_8 
ROOT
HETATM    1  C1  UNL     1     -33.474   4.132   3.109  1.00 20.00     0.045 A 
HETATM    2  C2  UNL     1     -33.746   5.486   2.507  1.00 20.00     0.022 A 
HETATM    3  C3  UNL     1     -34.038   5.233   3.971  1.00 20.00     0.062 A 
ENDROOT
BRANCH   3   4
HETATM    4  C7  UNL     1     -33.209   5.824   5.063  1.00 20.00     0.034 C 
HETATM    5  C5  UNL     1     -33.927   6.909   5.822  1.00 20.00     0.008 C 
ENDBRANCH   3   4
BRANCH   3   6
HETATM    6  O8  UNL     1     -35.431   5.112   4.312  1.00 20.00    -0.389 OA
HETATM    7  H22 UNL     1     -35.907   5.109   3.471  1.00 20.00     0.210 HD
ENDBRANCH   3   6
BRANCH   2   8
HETATM    8  C6  UNL     1     -32.619   6.349   2.056  1.00 20.00     0.003 C 
HETATM    9  C4  UNL     1     -32.980   7.812   2.005  1.00 20.00     0.005 C 
ENDBRANCH   2   8
TORSDOF 3
