REMARK  3 active torsions:
REMARK  status: ('A' for Active; 'I' for Inactive)
REMARK    1  A    between atoms: C3_3  and  C9_9 
REMARK    2  A    between atoms: C3_3  and  O10_10 
REMARK    3  A    between atoms: C8_8  and  C9_9 
ROOT
HETATM    1  C1  UNL     1     -34.095   7.109   5.508  1.00 20.00     0.046 A 
HETATM    2  C2  UNL     1     -33.169   5.923   5.589  1.00 20.00     0.019 A 
HETATM    3  C3  UNL     1     -32.955   6.982   4.529  1.00 20.00     0.068 A 
HETATM    4  C4  UNL     1     -33.667   4.557   5.264  1.00 20.00     0.013 C 
ENDROOT
BRANCH   3   5
HETATM    5  C9  UNL     1     -33.245   6.723   3.038  1.00 20.00    -0.017 C 
HETATM    6  C6  UNL     1     -32.582   5.396   2.634  1.00 20.00     0.018 C 
HETATM    7  C7  UNL     1     -34.767   6.606   2.850  1.00 20.00     0.018 C 
BRANCH   5   8
HETATM    8  C8  UNL     1     -32.669   7.908   2.220  1.00 20.00     0.007 C 
HETATM    9  C5  UNL     1     -32.862   7.828   0.711  1.00 20.00     0.006 C 
ENDBRANCH   5   8
ENDBRANCH   3   5
BRANCH   3  10
HETATM   10  O10 UNL     1     -31.837   7.861   4.751  1.00 20.00    -0.389 OA
HETATM   11  H28 UNL     1     -31.507   7.648   5.633  1.00 20.00     0.210 HD
ENDBRANCH   3  10
TORSDOF 3
