REMARK  2 active torsions:
REMARK  status: ('A' for Active; 'I' for Inactive)
REMARK    1  A    between atoms: C3_3  and  C7_7 
REMARK    2  A    between atoms: C3_3  and  O8_8 
ROOT
HETATM    1  C1  UNL     1     -32.035   6.620   2.975  1.00 20.00     0.045 A 
HETATM    2  C2  UNL     1     -33.088   7.554   2.437  1.00 20.00     0.019 A 
HETATM    3  C3  UNL     1     -33.488   6.224   3.030  1.00 20.00     0.065 A 
HETATM    4  C4  UNL     1     -33.180   7.814   0.973  1.00 20.00     0.013 C 
ENDROOT
BRANCH   3   5
HETATM    5  C7  UNL     1     -34.195   6.177   4.344  1.00 20.00     0.012 C 
HETATM    6  C5  UNL     1     -34.117   4.780   4.985  1.00 20.00     0.012 C 
HETATM    7  C6  UNL     1     -33.640   7.220   5.330  1.00 20.00     0.012 C 
ENDBRANCH   3   5
BRANCH   3   8
HETATM    8  O8  UNL     1     -33.891   5.188   2.119  1.00 20.00    -0.389 OA
HETATM    9  H22 UNL     1     -34.835   5.051   2.275  1.00 20.00     0.210 HD
ENDBRANCH   3   8
TORSDOF 2
