REMARK  3 active torsions:
REMARK  status: ('A' for Active; 'I' for Inactive)
REMARK    1  A    between atoms: C5_5  and  C9_9 
REMARK    2  A    between atoms: C6_6  and  C11_11 
REMARK    3  A    between atoms: C10_10  and  C11_11 
ROOT
HETATM    1  C1  UNL     1     -34.648   6.175   4.782  1.00 20.00     0.005 C 
HETATM    2  C2  UNL     1     -33.622   4.297   3.441  1.00 20.00     0.005 C 
HETATM    3  C3  UNL     1     -34.456   7.124   3.600  1.00 20.00     0.006 C 
HETATM    4  C4  UNL     1     -33.430   5.246   2.259  1.00 20.00     0.006 C 
HETATM    5  C5  UNL     1     -34.805   4.720   4.321  1.00 20.00    -0.015 C 
HETATM    6  C6  UNL     1     -33.273   6.700   2.720  1.00 20.00     0.004 C 
ENDROOT
BRANCH   6   7
HETATM    7  C11 UNL     1     -33.132   7.635   1.520  1.00 20.00     0.086 C 
HETATM    8 CL12 UNL     1     -31.819   6.999   0.496  1.00 20.00    -0.125 Cl
BRANCH   7   9
HETATM    9  C10 UNL     1     -32.856   9.061   1.980  1.00 20.00     0.016 C 
HETATM   10  C8  UNL     1     -32.719  10.034   0.817  1.00 20.00     0.006 C 
ENDBRANCH   7   9
ENDBRANCH   6   7
BRANCH   5  11
HETATM   11  C9  UNL     1     -34.944   3.786   5.522  1.00 20.00     0.000 C 
HETATM   12  C7  UNL     1     -35.137   2.367   5.097  1.00 20.00     0.005 C 
ENDBRANCH   5  11
TORSDOF 3
