REMARK  2 active torsions:
REMARK  status: ('A' for Active; 'I' for Inactive)
REMARK    1  A    between atoms: C3_3  and  C6_6 
REMARK    2  A    between atoms: C6_6  and  O9_9 
ROOT
HETATM    1  C2  UNL     1     -35.380   5.168   4.104  1.00 20.00     0.045 A 
HETATM    2  C5  UNL     1     -34.317   5.151   5.172  1.00 20.00     0.019 A 
HETATM    3  C6  UNL     1     -33.937   5.386   3.726  1.00 20.00     0.066 A 
HETATM    4  C8  UNL     1     -34.259   6.240   6.187  1.00 20.00     0.013 C 
ENDROOT
BRANCH   3   5
HETATM    5  C3  UNL     1     -33.431   6.718   3.179  1.00 20.00     0.024 A 
HETATM    6  C1  UNL     1     -31.969   6.997   2.947  1.00 20.00     0.012 A 
HETATM    7  C4  UNL     1     -32.905   6.867   1.775  1.00 20.00    -0.011 A 
HETATM    8  C7  UNL     1     -33.260   8.064   0.962  1.00 20.00     0.010 C 
ENDBRANCH   3   5
BRANCH   3   9
HETATM    9  O9  UNL     1     -33.311   4.247   3.091  1.00 20.00    -0.389 OA
HETATM   10  H23 UNL     1     -33.828   4.083   2.294  1.00 20.00     0.210 HD
ENDBRANCH   3   9
TORSDOF 2
