REMARK  4 active torsions:
REMARK  status: ('A' for Active; 'I' for Inactive)
REMARK    1  A    between atoms: C2_2  and  C7_7 
REMARK    2  A    between atoms: C3_3  and  C8_8 
REMARK    3  A    between atoms: C3_3  and  O10_10 
REMARK    4  A    between atoms: C8_8  and  C9_9 
ROOT
HETATM    1  C1  UNL     1     -32.748   6.994   4.248  1.00 20.00     0.045 A 
HETATM    2  C2  UNL     1     -34.116   6.378   4.385  1.00 20.00     0.022 A 
HETATM    3  C3  UNL     1     -33.485   6.521   3.021  1.00 20.00     0.062 A 
ENDROOT
BRANCH   3   4
HETATM    4  C8  UNL     1     -34.038   7.536   2.030  1.00 20.00     0.042 C 
BRANCH   4   5
HETATM    5  C9  UNL     1     -32.972   8.491   1.467  1.00 20.00    -0.020 C 
HETATM    6  C5  UNL     1     -31.859   7.750   0.724  1.00 20.00     0.009 C 
HETATM    7  C6  UNL     1     -33.628   9.510   0.533  1.00 20.00     0.009 C 
ENDBRANCH   4   5
ENDBRANCH   3   4
BRANCH   3   8
HETATM    8  O10 UNL     1     -32.972   5.329   2.402  1.00 20.00    -0.389 OA
HETATM    9  H28 UNL     1     -32.062   5.534   2.149  1.00 20.00     0.210 HD
ENDBRANCH   3   8
BRANCH   2  10
HETATM   10  C7  UNL     1     -34.274   5.046   5.035  1.00 20.00     0.003 C 
HETATM   11  C4  UNL     1     -34.322   5.127   6.539  1.00 20.00     0.005 C 
ENDBRANCH   2  10
TORSDOF 4
