REMARK  4 active torsions:
REMARK  status: ('A' for Active; 'I' for Inactive)
REMARK    1  A    between atoms: C3_3  and  C5_5 
REMARK    2  A    between atoms: C3_3  and  O8_8 
REMARK    3  A    between atoms: C5_5  and  C6_6 
REMARK    4  A    between atoms: C6_6  and  C7_7 
ROOT
HETATM    1  C1  UNL     1     -33.292   9.592   0.807  1.00 20.00     0.045 A 
HETATM    2  C2  UNL     1     -33.876   8.806  -0.338  1.00 20.00     0.019 A 
HETATM    3  C3  UNL     1     -33.139   8.092   0.769  1.00 20.00     0.062 A 
HETATM    4  C4  UNL     1     -33.297   8.934  -1.705  1.00 20.00     0.013 C 
ENDROOT
BRANCH   3   5
HETATM    5  C5  UNL     1     -33.891   7.244   1.739  1.00 20.00     0.047 C 
BRANCH   5   6
HETATM    6  C6  UNL     1     -33.238   7.240   3.122  1.00 20.00     0.120 C 
BRANCH   6   7
HETATM    7  C7  UNL     1     -33.977   6.351   4.099  1.00 20.00     0.388 C 
HETATM    8  F9  UNL     1     -35.242   6.779   4.294  1.00 20.00    -0.171 F 
HETATM    9  F10 UNL     1     -34.030   5.076   3.659  1.00 20.00    -0.171 F 
HETATM   10  F11 UNL     1     -33.355   6.345   5.299  1.00 20.00    -0.171 F 
ENDBRANCH   6   7
ENDBRANCH   5   6
ENDBRANCH   3   5
BRANCH   3  11
HETATM   11  O8  UNL     1     -31.819   7.604   0.477  1.00 20.00    -0.389 OA
HETATM   12  H22 UNL     1     -31.249   7.950   1.176  1.00 20.00     0.210 HD
ENDBRANCH   3  11
TORSDOF 4
