REMARK  2 active torsions:
REMARK  status: ('A' for Active; 'I' for Inactive)
REMARK    1  A    between atoms: C6_6  and  C9_9 
REMARK    2  A    between atoms: C8_8  and  C9_9 
ROOT
HETATM    1  C1  UNL     1     -33.627   4.188   3.294  1.00 20.00     0.027 C 
HETATM    2  C2  UNL     1     -33.552   5.168   2.124  1.00 20.00     0.008 C 
HETATM    3  C3  UNL     1     -32.780   6.930   3.862  1.00 20.00     0.032 C 
HETATM    4  C4  UNL     1     -34.444   4.688   4.491  1.00 20.00     0.167 C 
HETATM    5  C5  UNL     1     -34.180   7.068   4.459  1.00 20.00     0.168 C 
HETATM    6  C6  UNL     1     -32.725   6.436   2.408  1.00 20.00     0.006 C 
HETATM    7  O10 UNL     1     -35.042   5.955   4.242  1.00 20.00    -0.391 OA
ENDROOT
BRANCH   6   8
HETATM    8  C9  UNL     1     -33.117   7.546   1.430  1.00 20.00     0.086 C 
HETATM    9 CL11 UNL     1     -32.899   6.905  -0.216  1.00 20.00    -0.125 Cl
BRANCH   8  10
HETATM   10  C8  UNL     1     -32.278   8.792   1.676  1.00 20.00     0.016 C 
HETATM   11  C7  UNL     1     -32.645   9.934   0.738  1.00 20.00     0.006 C 
ENDBRANCH   8  10
ENDBRANCH   6   8
TORSDOF 2
