REMARK  3 active torsions:
REMARK  status: ('A' for Active; 'I' for Inactive)
REMARK    1  A    between atoms: C1_1  and  C8_8 
REMARK    2  A    between atoms: C1_1  and  C9_9 
REMARK    3  A    between atoms: C9_9  and  C10_10 
ROOT
HETATM    1  C4  UNL     1     -33.390   4.195   3.006  1.00 20.00     0.018 C 
HETATM    2  C9  UNL     1     -33.623   5.624   3.511  1.00 20.00     0.059 C 
ENDROOT
BRANCH   2   3
HETATM    3  C1  UNL     1     -34.877   5.613   4.396  1.00 20.00     0.134 C 
HETATM    4  O11 UNL     1     -35.988   5.347   3.934  1.00 20.00    -0.297 OA
BRANCH   3   5
HETATM    5  C8  UNL     1     -34.679   5.907   5.883  1.00 20.00     0.048 C 
HETATM    6  C2  UNL     1     -34.090   7.302   6.052  1.00 20.00     0.017 C 
HETATM    7  C3  UNL     1     -33.785   4.855   6.534  1.00 20.00     0.017 C 
ENDBRANCH   3   5
ENDBRANCH   2   3
BRANCH   2   8
HETATM    8  C10 UNL     1     -33.673   6.719   2.395  1.00 20.00    -0.041 C 
HETATM    9  C5  UNL     1     -32.248   7.240   2.110  1.00 20.00     0.015 C 
HETATM   10  C6  UNL     1     -34.517   7.922   2.868  1.00 20.00     0.015 C 
HETATM   11  C7  UNL     1     -34.265   6.204   1.070  1.00 20.00     0.015 C 
ENDBRANCH   2   8
TORSDOF 3
