REMARK  2 active torsions:
REMARK  status: ('A' for Active; 'I' for Inactive)
REMARK    1  A    between atoms: C4_4  and  C7_7 
REMARK    2  A    between atoms: C7_7  and  C8_8 
ROOT
HETATM    1  C1  UNL     1     -33.596   7.047   5.310  1.00 20.00     0.034 C 
HETATM    2  C2  UNL     1     -34.510   6.409   6.334  1.00 20.00     0.168 C 
HETATM    3  C3  UNL     1     -34.178   4.889   4.600  1.00 20.00     0.173 C 
HETATM    4  C4  UNL     1     -33.966   6.290   4.054  1.00 20.00     0.026 C 
HETATM    5  O9  UNL     1     -34.698   5.044   5.929  1.00 20.00    -0.391 OA
ENDROOT
BRANCH   4   6
HETATM    6  C7  UNL     1     -32.927   6.367   2.952  1.00 20.00     0.067 C 
HETATM    7 BR10 UNL     1     -33.056   4.733   1.863  1.00 20.00    -0.090 Br
BRANCH   6   8
HETATM    8  C8  UNL     1     -32.992   7.612   2.046  1.00 20.00    -0.008 C 
HETATM    9  C5  UNL     1     -31.943   7.524   0.929  1.00 20.00     0.011 C 
HETATM   10  C6  UNL     1     -32.839   8.921   2.786  1.00 20.00     0.011 C 
ENDBRANCH   6   8
ENDBRANCH   4   6
TORSDOF 2
