REMARK  2 active torsions:
REMARK  status: ('A' for Active; 'I' for Inactive)
REMARK    1  A    between atoms: C4_4  and  C7_7 
REMARK    2  A    between atoms: C6_6  and  C7_7 
ROOT
HETATM    1  C1  UNL     1     -34.049   7.127   4.969  1.00 20.00     0.034 C 
HETATM    2  C2  UNL     1     -34.366   6.384   6.251  1.00 20.00     0.168 C 
HETATM    3  C3  UNL     1     -34.323   4.844   4.503  1.00 20.00     0.173 C 
HETATM    4  C4  UNL     1     -33.452   6.027   4.118  1.00 20.00     0.026 C 
HETATM    5  O8  UNL     1     -34.678   5.033   5.881  1.00 20.00    -0.391 OA
ENDROOT
BRANCH   4   6
HETATM    6  C7  UNL     1     -33.447   6.325   2.631  1.00 20.00     0.063 C 
HETATM    7 BR9  UNL     1     -32.790   4.731   1.693  1.00 20.00    -0.091 Br
BRANCH   6   8
HETATM    8  C6  UNL     1     -32.564   7.530   2.293  1.00 20.00     0.012 C 
HETATM    9  C5  UNL     1     -32.465   7.812   0.799  1.00 20.00     0.006 C 
ENDBRANCH   6   8
ENDBRANCH   4   6
TORSDOF 2
