REMARK  2 active torsions:
REMARK  status: ('A' for Active; 'I' for Inactive)
REMARK    1  A    between atoms: C5_5  and  C7_7 
REMARK    2  A    between atoms: C7_7  and  O9_9 
ROOT
HETATM    1  C2  UNL     1     -31.923   6.730   3.164  1.00 20.00     0.045 A 
HETATM    2  C6  UNL     1     -32.685   7.114   1.922  1.00 20.00     0.019 A 
HETATM    3  C7  UNL     1     -33.362   6.332   3.016  1.00 20.00     0.066 A 
HETATM    4  C8  UNL     1     -32.993   8.544   1.640  1.00 20.00     0.013 C 
ENDROOT
BRANCH   3   5
HETATM    5  C5  UNL     1     -34.401   6.958   3.913  1.00 20.00     0.030 C 
HETATM    6  C1  UNL     1     -33.842   7.344   5.284  1.00 20.00     0.018 C 
HETATM    7  C3  UNL     1     -33.713   6.075   6.112  1.00 20.00     0.074 C 
HETATM    8  S10 UNL     1     -35.146   5.063   5.658  1.00 20.00    -0.169 SA
HETATM    9  C4  UNL     1     -35.583   6.029   4.181  1.00 20.00     0.081 C 
ENDBRANCH   3   5
BRANCH   3  10
HETATM   10  O9  UNL     1     -33.623   4.950   2.742  1.00 20.00    -0.389 OA
HETATM   11  H24 UNL     1     -33.175   4.753   1.907  1.00 20.00     0.210 HD
ENDBRANCH   3  10
TORSDOF 2
