REMARK  3 active torsions:
REMARK  status: ('A' for Active; 'I' for Inactive)
REMARK    1  A    between atoms: C1_1  and  C7_7 
REMARK    2  A    between atoms: C1_1  and  C12_12 
REMARK    3  A    between atoms: C8_8  and  C13_13 
ROOT
HETATM    1  C2  UNL     1     -32.195   7.574   4.341  1.00 20.00     0.001 C 
HETATM    2  C3  UNL     1     -33.377   6.679   4.700  1.00 20.00     0.012 C 
HETATM    3  C4  UNL     1     -34.390   5.761   2.559  1.00 20.00     0.012 C 
HETATM    4  C5  UNL     1     -31.908   7.797   2.857  1.00 20.00     0.005 C 
HETATM    5  C6  UNL     1     -33.693   6.601   1.491  1.00 20.00     0.006 C 
HETATM    6  C7  UNL     1     -33.546   5.456   3.799  1.00 20.00     0.055 C 
HETATM    7  C8  UNL     1     -33.147   7.960   1.963  1.00 20.00    -0.011 C 
ENDROOT
BRANCH   6   8
HETATM    8  C1  UNL     1     -34.240   4.384   4.588  1.00 20.00     0.130 C 
HETATM    9  O14 UNL     1     -35.056   4.668   5.463  1.00 20.00    -0.298 OA
BRANCH   8  10
HETATM   10  C12 UNL     1     -33.872   2.953   4.239  1.00 20.00     0.074 C 
HETATM   11  C9  UNL     1     -34.779   2.359   3.176  1.00 20.00     0.013 C 
ENDBRANCH   8  10
ENDBRANCH   6   8
BRANCH   7  12
HETATM   12  C13 UNL     1     -32.772   8.794   0.729  1.00 20.00    -0.019 C 
HETATM   13  C10 UNL     1     -32.035   7.931  -0.289  1.00 20.00     0.010 C 
HETATM   14  C11 UNL     1     -34.019   9.416   0.112  1.00 20.00     0.010 C 
ENDBRANCH   7  12
TORSDOF 3
