REMARK  3 active torsions:
REMARK  status: ('A' for Active; 'I' for Inactive)
REMARK    1  A    between atoms: C1_1  and  C8_8 
REMARK    2  A    between atoms: C2_2  and  C3_3 
REMARK    3  A    between atoms: C3_3  and  C9_9 
ROOT
HETATM    1  C1  UNL     1     -32.693   7.436   2.496  1.00 20.00    -0.012 C 
HETATM    2  C3  UNL     1     -33.140   6.356   3.167  1.00 20.00    -0.020 C 
ENDROOT
BRANCH   2   3
HETATM    3  C2  UNL     1     -32.847   6.391   4.632  1.00 20.00     0.265 C 
HETATM    4  O10 UNL     1     -33.253   7.263   5.391  1.00 20.00    -0.302 OA
ENDBRANCH   2   3
BRANCH   2   5
HETATM    5  C9  UNL     1     -33.879   5.169   2.582  1.00 20.00     0.013 C 
HETATM    6  C6  UNL     1     -32.923   4.092   2.061  1.00 20.00     0.015 C 
HETATM    7  C7  UNL     1     -34.897   4.578   3.561  1.00 20.00     0.015 C 
ENDBRANCH   2   5
BRANCH   1   8
HETATM    8  C8  UNL     1     -32.810   7.728   1.017  1.00 20.00     0.001 C 
HETATM    9  C4  UNL     1     -32.898   9.237   0.789  1.00 20.00     0.013 C 
HETATM   10  C5  UNL     1     -31.607   7.143   0.274  1.00 20.00     0.013 C 
ENDBRANCH   1   8
TORSDOF 3
