REMARK  4 active torsions:
REMARK  status: ('A' for Active; 'I' for Inactive)
REMARK    1  A    between atoms: C2_2  and  C8_8 
REMARK    2  A    between atoms: C3_3  and  C9_9 
REMARK    3  A    between atoms: C3_3  and  O11_11 
REMARK    4  A    between atoms: C9_9  and  C10_10 
ROOT
HETATM    1  C1  UNL     1     -34.151   6.349   1.589  1.00 20.00     0.045 A 
HETATM    2  C2  UNL     1     -33.685   7.775   1.731  1.00 20.00     0.022 A 
HETATM    3  C3  UNL     1     -33.363   6.765   2.806  1.00 20.00     0.063 A 
ENDROOT
BRANCH   3   4
HETATM    4  C9  UNL     1     -34.051   6.853   4.163  1.00 20.00     0.046 C 
BRANCH   4   5
HETATM    5  C10 UNL     1     -34.621   5.522   4.718  1.00 20.00    -0.049 C 
HETATM    6  C5  UNL     1     -36.091   5.404   4.271  1.00 20.00     0.014 C 
HETATM    7  C6  UNL     1     -34.575   5.497   6.255  1.00 20.00     0.014 C 
HETATM    8  C7  UNL     1     -33.846   4.313   4.168  1.00 20.00     0.014 C 
ENDBRANCH   4   5
ENDBRANCH   3   4
BRANCH   3   9
HETATM    9  O11 UNL     1     -32.011   6.280   2.874  1.00 20.00    -0.389 OA
HETATM   10  H31 UNL     1     -32.077   5.316   2.869  1.00 20.00     0.210 HD
ENDBRANCH   3   9
BRANCH   2  11
HETATM   11  C8  UNL     1     -32.631   8.311   0.824  1.00 20.00     0.003 C 
HETATM   12  C4  UNL     1     -33.176   8.776  -0.502  1.00 20.00     0.005 C 
ENDBRANCH   2  11
TORSDOF 4
