REMARK  4 active torsions:
REMARK  status: ('A' for Active; 'I' for Inactive)
REMARK    1  A    between atoms: C1_1  and  C9_9 
REMARK    2  A    between atoms: C2_2  and  C7_7 
REMARK    3  A    between atoms: C2_2  and  C8_8 
REMARK    4  A    between atoms: C8_8  and  O10_10 
ROOT
HETATM    1  C1  UNL     1     -33.067   5.323   2.919  1.00 20.00    -0.013 C 
HETATM    2  C2  UNL     1     -34.038   4.531   3.423  1.00 20.00    -0.060 C 
ENDROOT
BRANCH   2   3
HETATM    3  C7  UNL     1     -35.381   4.995   3.940  1.00 20.00     0.031 C 
HETATM    4  C3  UNL     1     -35.357   5.323   5.427  1.00 20.00     0.010 C 
ENDBRANCH   2   3
BRANCH   2   5
HETATM    5  C8  UNL     1     -33.813   3.035   3.470  1.00 20.00     0.198 C 
BRANCH   5   6
HETATM    6  O10 UNL     1     -34.810   2.376   2.699  1.00 20.00    -0.397 OA
HETATM    7  H28 UNL     1     -34.626   1.425   2.759  1.00 20.00     0.209 HD
ENDBRANCH   5   6
ENDBRANCH   2   5
BRANCH   1   8
HETATM    8  C9  UNL     1     -32.981   6.837   2.749  1.00 20.00    -0.033 C 
HETATM    9  C4  UNL     1     -32.117   7.194   1.529  1.00 20.00     0.018 C 
HETATM   10  C5  UNL     1     -34.359   7.515   2.648  1.00 20.00     0.018 C 
HETATM   11  C6  UNL     1     -32.286   7.419   4.003  1.00 20.00     0.018 C 
ENDBRANCH   1   8
TORSDOF 4
