REMARK  4 active torsions:
REMARK  status: ('A' for Active; 'I' for Inactive)
REMARK    1  A    between atoms: C2_2  and  C8_8 
REMARK    2  A    between atoms: C3_3  and  C10_10 
REMARK    3  A    between atoms: C3_3  and  O11_11 
REMARK    4  A    between atoms: C9_9  and  C10_10 
ROOT
HETATM    1  C1  UNL     1     -31.686   6.724   1.961  1.00 20.00     0.046 A 
HETATM    2  C2  UNL     1     -32.531   7.971   1.974  1.00 20.00     0.023 A 
HETATM    3  C3  UNL     1     -32.447   7.098   3.208  1.00 20.00     0.069 A 
ENDROOT
BRANCH   3   4
HETATM    4  C10 UNL     1     -33.626   6.225   3.681  1.00 20.00    -0.017 C 
HETATM    5  C6  UNL     1     -34.896   7.092   3.705  1.00 20.00     0.018 C 
HETATM    6  C7  UNL     1     -33.816   5.076   2.677  1.00 20.00     0.018 C 
BRANCH   4   7
HETATM    7  C9  UNL     1     -33.291   5.684   5.095  1.00 20.00     0.007 C 
HETATM    8  C5  UNL     1     -34.349   4.793   5.732  1.00 20.00     0.006 C 
ENDBRANCH   4   7
ENDBRANCH   3   4
BRANCH   3   9
HETATM    9  O11 UNL     1     -31.658   7.629   4.288  1.00 20.00    -0.389 OA
HETATM   10  H31 UNL     1     -31.236   8.425   3.939  1.00 20.00     0.210 HD
ENDBRANCH   3   9
BRANCH   2  11
HETATM   11  C8  UNL     1     -33.762   8.054   1.138  1.00 20.00     0.003 C 
HETATM   12  C4  UNL     1     -33.479   8.444  -0.290  1.00 20.00     0.005 C 
ENDBRANCH   2  11
TORSDOF 4
