REMARK  1 active torsions:
REMARK  status: ('A' for Active; 'I' for Inactive)
REMARK    1  A    between atoms: C3_3  and  C8_8 
ROOT
HETATM    1  C1  UNL     1     -31.820   7.769   2.402  1.00 20.00     0.284 C 
HETATM    2  C2  UNL     1     -33.421   5.523   2.483  1.00 20.00     0.110 C 
HETATM    3  C3  UNL     1     -33.037   6.153   3.828  1.00 20.00     0.233 C 
HETATM    4  C4  UNL     1     -33.077   8.146   1.613  1.00 20.00     0.071 C 
HETATM    5  C5  UNL     1     -32.707   8.758   0.264  1.00 20.00     0.023 C 
HETATM    6  N9  UNL     1     -32.108   7.288   3.750  1.00 20.00     0.090 N 
HETATM    7  S10 UNL     1     -34.163   6.703   1.315  1.00 20.00    -0.161 SA
HETATM    8  H27 UNL     1     -31.217   7.020   4.200  1.00 20.00     0.316 HD
ENDROOT
BRANCH   3   9
HETATM    9  C8  UNL     1     -34.269   6.536   4.658  1.00 20.00     0.011 C 
HETATM   10  C6  UNL     1     -35.138   5.310   4.921  1.00 20.00     0.012 C 
HETATM   11  C7  UNL     1     -33.846   7.189   5.971  1.00 20.00     0.012 C 
ENDBRANCH   3   9
TORSDOF 1
