REMARK  2 active torsions:
REMARK  status: ('A' for Active; 'I' for Inactive)
REMARK    1  A    between atoms: C6_6  and  C8_8 
REMARK    2  A    between atoms: C7_7  and  C9_9 
ROOT
HETATM    1  C1  UNL     1     -31.517   8.021   3.398  1.00 20.00     0.027 C 
HETATM    2  C4  UNL     1     -32.285   7.189   2.379  1.00 20.00     0.010 C 
HETATM    3  C5  UNL     1     -32.425   8.422   4.548  1.00 20.00     0.168 C 
HETATM    4  C7  UNL     1     -33.011   6.016   3.056  1.00 20.00     0.029 C 
HETATM    5  C8  UNL     1     -33.838   6.527   4.256  1.00 20.00     0.130 C 
HETATM    6  O10 UNL     1     -32.996   7.265   5.153  1.00 20.00    -0.385 OA
ENDROOT
BRANCH   5   7
HETATM    7  C6  UNL     1     -34.459   5.409   5.050  1.00 20.00     0.015 A 
HETATM    8  C2  UNL     1     -33.625   4.609   6.012  1.00 20.00     0.007 A 
HETATM    9  C3  UNL     1     -34.668   5.559   6.531  1.00 20.00     0.007 A 
ENDBRANCH   5   7
BRANCH   4  10
HETATM   10  C9  UNL     1     -33.860   5.271   2.024  1.00 20.00     0.121 C 
HETATM   11 CL11 UNL     1     -34.221   3.636   2.602  1.00 20.00    -0.130 Cl
ENDBRANCH   4  10
TORSDOF 2
