REMARK  3 active torsions:
REMARK  status: ('A' for Active; 'I' for Inactive)
REMARK    1  A    between atoms: C2_2  and  C6_6 
REMARK    2  A    between atoms: C3_3  and  O8_8 
REMARK    3  A    between atoms: C6_6  and  C7_7 
ROOT
HETATM    1  C1  UNL     1     -34.014   4.216   3.835  1.00 20.00     0.045 A 
HETATM    2  C2  UNL     1     -33.928   5.431   2.948  1.00 20.00     0.022 A 
HETATM    3  C3  UNL     1     -34.870   5.421   4.133  1.00 20.00     0.058 A 
HETATM    4  C4  UNL     1     -34.616   6.232   5.360  1.00 20.00     0.046 C 
ENDROOT
BRANCH   2   5
HETATM    5  C6  UNL     1     -32.688   6.256   2.922  1.00 20.00     0.007 C 
BRANCH   5   6
HETATM    6  C7  UNL     1     -32.926   7.661   2.340  1.00 20.00    -0.004 C 
HETATM    7  C5  UNL     1     -33.405   7.621   0.898  1.00 20.00     0.005 C 
ENDBRANCH   5   6
ENDBRANCH   2   5
BRANCH   3   8
HETATM    8  O8  UNL     1     -36.267   5.294   3.810  1.00 20.00    -0.390 OA
HETATM    9  H22 UNL     1     -36.591   4.553   4.338  1.00 20.00     0.210 HD
ENDBRANCH   3   8
TORSDOF 3
