REMARK  2 active torsions:
REMARK  status: ('A' for Active; 'I' for Inactive)
REMARK    1  A    between atoms: C4_4  and  C8_8 
REMARK    2  A    between atoms: C5_5  and  C9_9 
ROOT
HETATM    1  C1  UNL     1     -33.618   4.516   3.749  1.00 20.00     0.027 C 
HETATM    2  C2  UNL     1     -34.175   5.885   4.132  1.00 20.00     0.010 C 
HETATM    3  C3  UNL     1     -33.622   4.332   2.237  1.00 20.00     0.168 C 
HETATM    4  C4  UNL     1     -33.509   7.018   3.335  1.00 20.00     0.029 C 
HETATM    5  C5  UNL     1     -33.559   6.671   1.832  1.00 20.00     0.130 C 
HETATM    6  O10 UNL     1     -32.938   5.403   1.587  1.00 20.00    -0.385 OA
ENDROOT
BRANCH   5   7
HETATM    7  C9  UNL     1     -32.871   7.703   0.947  1.00 20.00     0.007 C 
HETATM    8  C6  UNL     1     -32.927   7.280  -0.520  1.00 20.00     0.012 C 
HETATM    9  C7  UNL     1     -33.506   9.081   1.131  1.00 20.00     0.012 C 
ENDBRANCH   5   7
BRANCH   4  10
HETATM   10  C8  UNL     1     -32.086   7.269   3.848  1.00 20.00     0.121 C 
HETATM   11 CL11 UNL     1     -32.133   7.736   5.554  1.00 20.00    -0.130 Cl
ENDBRANCH   4  10
TORSDOF 2
