REMARK  2 active torsions:
REMARK  status: ('A' for Active; 'I' for Inactive)
REMARK    1  A    between atoms: C3_3  and  C7_7 
REMARK    2  A    between atoms: C4_4  and  C9_9 
ROOT
HETATM    1  C1  UNL     1     -34.515   4.311   5.695  1.00 20.00    -0.003 C 
HETATM    2  C2  UNL     1     -35.045   5.424   5.173  1.00 20.00     0.131 C 
HETATM    3  C5  UNL     1     -33.494   3.506   4.954  1.00 20.00     0.032 C 
HETATM    4  C6  UNL     1     -32.946   4.295   3.766  1.00 20.00     0.040 C 
HETATM    5  C7  UNL     1     -34.084   5.030   3.063  1.00 20.00     0.151 C 
HETATM    6  O10 UNL     1     -34.782   5.932   3.928  1.00 20.00    -0.354 OA
ENDROOT
BRANCH   5   7
HETATM    7  C3  UNL     1     -33.555   5.903   1.973  1.00 20.00     0.009 C 
HETATM    8  C4  UNL     1     -32.648   6.893   2.080  1.00 20.00    -0.071 C 
HETATM    9  C8  UNL     1     -32.044   7.227   3.419  1.00 20.00     0.044 C 
BRANCH   8  10
HETATM   10  C9  UNL     1     -32.194   7.758   0.937  1.00 20.00     0.148 C 
HETATM   11 CL11 UNL     1     -33.232   9.193   0.793  1.00 20.00    -0.126 Cl
ENDBRANCH   8  10
ENDBRANCH   5   7
TORSDOF 2
