REMARK  2 active torsions:
REMARK  status: ('A' for Active; 'I' for Inactive)
REMARK    1  A    between atoms: C5_5  and  C7_7 
REMARK    2  A    between atoms: C7_7  and  C8_8 
ROOT
HETATM    1  C1  UNL     1     -33.958   4.425   3.619  1.00 20.00     0.066 C 
HETATM    2  C2  UNL     1     -34.971   6.400   4.692  1.00 20.00     0.048 C 
HETATM    3  C3  UNL     1     -33.823   6.763   5.609  1.00 20.00     0.169 C 
HETATM    4  C4  UNL     1     -34.267   5.859   3.465  1.00 20.00     0.123 C 
HETATM    5  C5  UNL     1     -32.986   6.695   3.424  1.00 20.00     0.139 C 
HETATM    6  N9  UNL     1     -33.715   3.297   3.740  1.00 20.00    -0.197 NA
HETATM    7  O10 UNL     1     -32.729   7.147   4.768  1.00 20.00    -0.384 OA
ENDROOT
BRANCH   5   8
HETATM    8  C7  UNL     1     -33.122   7.928   2.539  1.00 20.00     0.033 C 
BRANCH   8   9
HETATM    9  C8  UNL     1     -32.919   7.581   1.067  1.00 20.00    -0.002 C 
HETATM   10  C6  UNL     1     -33.081   8.806   0.182  1.00 20.00     0.005 C 
ENDBRANCH   8   9
ENDBRANCH   5   8
TORSDOF 2
