REMARK  2 active torsions:
REMARK  status: ('A' for Active; 'I' for Inactive)
REMARK    1  A    between atoms: C4_4  and  C5_5 
REMARK    2  A    between atoms: C6_6  and  C7_7 
ROOT
HETATM    1  C1  UNL     1     -34.610   5.309   4.708  1.00 20.00     0.038 A 
HETATM    2  C2  UNL     1     -34.927   5.374   6.045  1.00 20.00     0.142 A 
HETATM    3  C3  UNL     1     -33.833   7.204   5.593  1.00 20.00     0.152 A 
HETATM    4  C4  UNL     1     -33.899   6.497   4.415  1.00 20.00    -0.011 A 
HETATM    5  O10 UNL     1     -34.457   6.527   6.592  1.00 20.00    -0.334 OA
ENDROOT
BRANCH   4   6
HETATM    6  C5  UNL     1     -33.333   6.925   3.129  1.00 20.00     0.023 C 
HETATM    7  C7  UNL     1     -32.890   6.102   2.164  1.00 20.00    -0.024 C 
HETATM    8  C8  UNL     1     -32.908   4.604   2.161  1.00 20.00     0.051 C 
BRANCH   7   9
HETATM    9  C6  UNL     1     -32.344   6.769   0.950  1.00 20.00     0.265 C 
HETATM   10  O9  UNL     1     -32.296   7.988   0.823  1.00 20.00    -0.302 OA
ENDBRANCH   7   9
ENDBRANCH   4   6
TORSDOF 2
