REMARK  2 active torsions:
REMARK  status: ('A' for Active; 'I' for Inactive)
REMARK    1  A    between atoms: C1_1  and  C6_6 
REMARK    2  A    between atoms: C2_2  and  C7_7 
ROOT
HETATM    1  C3  UNL     1     -34.242   4.621   4.391  1.00 20.00     0.037 C 
HETATM    2  C4  UNL     1     -34.598   4.759   5.854  1.00 20.00     0.168 C 
HETATM    3  C5  UNL     1     -33.826   6.824   5.104  1.00 20.00     0.176 C 
HETATM    4  C6  UNL     1     -34.360   6.052   3.907  1.00 20.00     0.034 C 
HETATM    5  O8  UNL     1     -34.109   6.039   6.273  1.00 20.00    -0.390 OA
ENDROOT
BRANCH   4   6
HETATM    6  C1  UNL     1     -33.625   6.320   2.639  1.00 20.00    -0.023 C 
HETATM    7  C2  UNL     1     -33.055   7.496   2.340  1.00 20.00    -0.015 C 
BRANCH   7   8
HETATM    8  C7  UNL     1     -32.311   7.756   1.071  1.00 20.00     0.141 C 
HETATM    9 CL9  UNL     1     -33.425   8.366  -0.170  1.00 20.00    -0.126 Cl
ENDBRANCH   7   8
ENDBRANCH   4   6
TORSDOF 2
