REMARK  3 active torsions:
REMARK  status: ('A' for Active; 'I' for Inactive)
REMARK    1  A    between atoms: C1_1  and  C6_6 
REMARK    2  A    between atoms: C2_2  and  C3_3 
REMARK    3  A    between atoms: C3_3  and  C8_8 
ROOT
HETATM    1  C1  UNL     1     -33.255   6.559   2.770  1.00 20.00    -0.012 C 
HETATM    2  C3  UNL     1     -33.679   6.309   4.022  1.00 20.00    -0.024 C 
ENDROOT
BRANCH   2   3
HETATM    3  C2  UNL     1     -34.456   5.055   4.218  1.00 20.00     0.265 C 
HETATM    4  O9  UNL     1     -34.003   3.942   3.976  1.00 20.00    -0.302 OA
ENDBRANCH   2   3
BRANCH   2   5
HETATM    5  C8  UNL     1     -33.462   7.205   5.210  1.00 20.00     0.037 C 
HETATM    6  C7  UNL     1     -34.070   6.628   6.481  1.00 20.00     0.010 C 
ENDBRANCH   2   5
BRANCH   1   7
HETATM    7  C6  UNL     1     -32.480   7.729   2.313  1.00 20.00     0.009 A 
HETATM    8  C4  UNL     1     -32.587   8.132   0.878  1.00 20.00     0.009 A 
HETATM    9  C5  UNL     1     -33.224   8.971   1.944  1.00 20.00     0.009 A 
ENDBRANCH   1   7
TORSDOF 3
