REMARK  2 active torsions:
REMARK  status: ('A' for Active; 'I' for Inactive)
REMARK    1  A    between atoms: C1_1  and  C7_7 
REMARK    2  A    between atoms: C2_2  and  C8_8 
ROOT
HETATM    1  C3  UNL     1     -33.580   7.342   4.035  1.00 20.00     0.035 C 
HETATM    2  C4  UNL     1     -33.516   5.369   2.489  1.00 20.00     0.035 C 
HETATM    3  C5  UNL     1     -34.132   6.402   5.100  1.00 20.00     0.168 C 
HETATM    4  C6  UNL     1     -34.070   4.537   3.639  1.00 20.00     0.168 C 
HETATM    5  C7  UNL     1     -32.742   6.566   3.026  1.00 20.00     0.012 C 
HETATM    6  O9  UNL     1     -34.876   5.340   4.502  1.00 20.00    -0.391 OA
ENDROOT
BRANCH   5   7
HETATM    7  C1  UNL     1     -32.424   7.487   1.864  1.00 20.00    -0.025 C 
HETATM    8  C2  UNL     1     -33.357   8.063   1.091  1.00 20.00    -0.020 C 
BRANCH   8   9
HETATM    9  C8  UNL     1     -33.036   8.956  -0.058  1.00 20.00     0.112 C 
HETATM   10 BR10 UNL     1     -33.709   8.132  -1.685  1.00 20.00    -0.092 Br
ENDBRANCH   8   9
ENDBRANCH   5   7
TORSDOF 2
