REMARK  2 active torsions:
REMARK  status: ('A' for Active; 'I' for Inactive)
REMARK    1  A    between atoms: C3_3  and  C8_8 
REMARK    2  A    between atoms: C4_4  and  C9_9 
ROOT
HETATM    1  C1  UNL     1     -34.620   6.512   5.994  1.00 20.00     0.034 C 
HETATM    2  C2  UNL     1     -33.153   6.862   6.136  1.00 20.00     0.168 C 
HETATM    3  C3  UNL     1     -34.672   5.968   4.582  1.00 20.00     0.031 C 
HETATM    4  C4  UNL     1     -33.707   6.912   3.870  1.00 20.00     0.134 C 
HETATM    5  O10 UNL     1     -32.679   7.219   4.829  1.00 20.00    -0.385 OA
ENDROOT
BRANCH   4   6
HETATM    6  C9  UNL     1     -33.074   6.317   2.625  1.00 20.00    -0.025 C 
HETATM    7  C5  UNL     1     -33.328   7.234   1.413  1.00 20.00     0.017 C 
HETATM    8  C6  UNL     1     -33.677   4.929   2.335  1.00 20.00     0.017 C 
HETATM    9  C7  UNL     1     -31.553   6.167   2.826  1.00 20.00     0.017 C 
ENDBRANCH   4   6
BRANCH   3  10
HETATM   10  C8  UNL     1     -36.070   5.946   3.988  1.00 20.00     0.121 C 
HETATM   11 CL11 UNL     1     -36.968   4.531   4.574  1.00 20.00    -0.130 Cl
ENDBRANCH   3  10
TORSDOF 2
