REMARK  4 active torsions:
REMARK  status: ('A' for Active; 'I' for Inactive)
REMARK    1  A    between atoms: C1_1  and  C9_9 
REMARK    2  A    between atoms: C2_2  and  C6_6 
REMARK    3  A    between atoms: C7_7  and  C9_9 
REMARK    4  A    between atoms: C8_8  and  C9_9 
ROOT
HETATM    1  C1  UNL     1     -32.878   6.508   1.943  1.00 20.00    -0.019 C 
HETATM    2  C2  UNL     1     -33.573   5.677   2.745  1.00 20.00    -0.073 C 
HETATM    3  C3  UNL     1     -33.614   4.200   2.452  1.00 20.00     0.044 C 
ENDROOT
BRANCH   1   4
HETATM    4  C9  UNL     1     -32.737   8.010   2.065  1.00 20.00     0.007 C 
BRANCH   4   5
HETATM    5  C7  UNL     1     -32.577   8.656   0.671  1.00 20.00     0.004 C 
HETATM    6  C4  UNL     1     -33.772   8.418  -0.245  1.00 20.00     0.006 C 
ENDBRANCH   4   5
BRANCH   4   7
HETATM    7  C8  UNL     1     -31.522   8.376   2.944  1.00 20.00     0.004 C 
HETATM    8  C5  UNL     1     -31.632   7.859   4.373  1.00 20.00     0.006 C 
ENDBRANCH   4   7
ENDBRANCH   1   4
BRANCH   2   9
HETATM    9  C6  UNL     1     -34.315   6.104   3.981  1.00 20.00     0.148 C 
HETATM   10 CL10 UNL     1     -36.042   5.714   3.835  1.00 20.00    -0.126 Cl
ENDBRANCH   2   9
TORSDOF 4
