REMARK  1 active torsions:
REMARK  status: ('A' for Active; 'I' for Inactive)
REMARK    1  A    between atoms: C7_7  and  N12_12 
ROOT
HETATM    1  C1  UNL     1     -33.830   6.229   5.253  1.00 20.00     0.134 C 
HETATM    2  C2  UNL     1     -33.185   7.595   5.330  1.00 20.00     0.106 C 
HETATM    3  C4  UNL     1     -32.347   7.879   4.097  1.00 20.00     0.243 C 
HETATM    4  C5  UNL     1     -34.593   5.925   3.967  1.00 20.00     0.082 C 
HETATM    5  C8  UNL     1     -33.700   6.196   2.741  1.00 20.00     0.195 C 
HETATM    6  C9  UNL     1     -35.176   4.514   3.979  1.00 20.00     0.020 C 
HETATM    7  C11 UNL     1     -32.564   5.187   2.554  1.00 20.00     0.041 C 
HETATM    8  N12 UNL     1     -33.169   7.622   2.858  1.00 20.00    -0.061 N 
HETATM    9  O13 UNL     1     -33.802   5.460   6.213  1.00 20.00    -0.297 OA
HETATM   10  H33 UNL     1     -33.999   8.230   2.925  1.00 20.00     0.280 HD
ENDROOT
BRANCH   8  11
HETATM   11  C7  UNL     1     -32.459   8.104   1.610  1.00 20.00     0.193 A 
HETATM   12  C3  UNL     1     -32.411   9.588   1.365  1.00 20.00     0.040 A 
HETATM   13  C6  UNL     1     -33.301   8.714   0.522  1.00 20.00     0.014 A 
HETATM   14  C10 UNL     1     -32.967   8.465  -0.909  1.00 20.00     0.012 C 
ENDBRANCH   8  11
TORSDOF 1
