REMARK  4 active torsions:
REMARK  status: ('A' for Active; 'I' for Inactive)
REMARK    1  A    between atoms: C6_6  and  C9_9 
REMARK    2  A    between atoms: C7_7  and  C10_10 
REMARK    3  A    between atoms: C8_8  and  O11_11 
REMARK    4  A    between atoms: C9_9  and  C10_10 
ROOT
HETATM    1  C1  UNL     1     -34.329   6.262   5.800  1.00 20.00     0.003 C 
HETATM    2  C2  UNL     1     -33.278   6.590   4.738  1.00 20.00     0.007 C 
HETATM    3  C5  UNL     1     -35.394   5.405   5.111  1.00 20.00     0.032 C 
HETATM    4  C7  UNL     1     -33.898   6.151   3.409  1.00 20.00     0.014 C 
HETATM    5  C8  UNL     1     -34.751   4.945   3.807  1.00 20.00     0.122 C 
ENDROOT
BRANCH   4   6
HETATM    6  C10 UNL     1     -32.855   5.865   2.341  1.00 20.00     0.007 C 
BRANCH   6   7
HETATM    7  C9  UNL     1     -31.982   7.089   2.070  1.00 20.00     0.005 C 
BRANCH   7   8
HETATM    8  C6  UNL     1     -32.807   8.261   1.565  1.00 20.00    -0.014 A 
HETATM    9  C3  UNL     1     -32.145   9.393   0.829  1.00 20.00     0.005 A 
HETATM   10  C4  UNL     1     -33.044   8.441   0.091  1.00 20.00     0.005 A 
ENDBRANCH   7   8
ENDBRANCH   6   7
ENDBRANCH   4   6
BRANCH   5  11
HETATM   11  O11 UNL     1     -33.938   3.803   4.049  1.00 20.00    -0.395 OA
HETATM   12  H29 UNL     1     -34.522   3.115   4.405  1.00 20.00     0.210 HD
ENDBRANCH   5  11
TORSDOF 4
