REMARK  3 active torsions:
REMARK  status: ('A' for Active; 'I' for Inactive)
REMARK    1  A    between atoms: C8_8  and  C10_10 
REMARK    2  A    between atoms: C9_9  and  C11_11 
REMARK    3  A    between atoms: C10_10  and  C11_11 
ROOT
HETATM    1  C1  UNL     1     -33.777   5.211   3.482  1.00 20.00     0.131 C 
HETATM    2  C2  UNL     1     -34.988   4.906   4.337  1.00 20.00     0.079 C 
HETATM    3  C3  UNL     1     -34.716   5.253   5.793  1.00 20.00     0.007 C 
HETATM    4  C4  UNL     1     -34.211   6.685   5.947  1.00 20.00     0.001 C 
HETATM    5  C5  UNL     1     -32.952   6.915   5.112  1.00 20.00     0.012 C 
HETATM    6  C8  UNL     1     -33.191   6.612   3.629  1.00 20.00     0.055 C 
HETATM    7  O12 UNL     1     -33.361   4.397   2.659  1.00 20.00    -0.298 OA
ENDROOT
BRANCH   6   8
HETATM    8  C10 UNL     1     -31.900   6.771   2.832  1.00 20.00     0.012 C 
BRANCH   8   9
HETATM    9  C11 UNL     1     -32.187   6.982   1.349  1.00 20.00     0.005 C 
BRANCH   9  10
HETATM   10  C9  UNL     1     -33.047   8.215   1.122  1.00 20.00    -0.014 A 
HETATM   11  C6  UNL     1     -32.404   9.558   0.913  1.00 20.00     0.005 A 
HETATM   12  C7  UNL     1     -33.091   8.867  -0.232  1.00 20.00     0.005 A 
ENDBRANCH   9  10
ENDBRANCH   8   9
ENDBRANCH   6   8
TORSDOF 3
