REMARK  4 active torsions:
REMARK  status: ('A' for Active; 'I' for Inactive)
REMARK    1  A    between atoms: C1_1  and  C10_10 
REMARK    2  A    between atoms: C5_5  and  C8_8 
REMARK    3  A    between atoms: C8_8  and  C10_10 
REMARK    4  A    between atoms: C9_9  and  C10_10 
ROOT
HETATM    1  C10 UNL     1     -33.638   5.606   3.134  1.00 20.00     0.055 C 
ENDROOT
BRANCH   1   2
HETATM    2  C1  UNL     1     -34.036   6.106   4.522  1.00 20.00     0.127 C 
HETATM    3  C6  UNL     1     -34.653   5.097   5.456  1.00 20.00     0.091 C 
HETATM    4  O11 UNL     1     -33.868   7.275   4.869  1.00 20.00    -0.298 OA
ENDBRANCH   1   2
BRANCH   1   5
HETATM    5  C8  UNL     1     -32.451   6.426   2.602  1.00 20.00     0.016 C 
BRANCH   5   6
HETATM    6  C5  UNL     1     -32.868   7.768   2.038  1.00 20.00    -0.014 C 
HETATM    7  C3  UNL     1     -33.425   7.772   0.590  1.00 20.00     0.005 C 
HETATM    8  C2  UNL     1     -32.704   9.121   0.395  1.00 20.00     0.001 C 
HETATM    9  C4  UNL     1     -31.733   8.683   1.511  1.00 20.00     0.005 C 
ENDBRANCH   5   6
ENDBRANCH   1   5
BRANCH   1  10
HETATM   10  C9  UNL     1     -33.275   4.114   3.200  1.00 20.00     0.007 C 
HETATM   11  C7  UNL     1     -32.899   3.574   1.822  1.00 20.00     0.006 C 
ENDBRANCH   1  10
TORSDOF 4
