REMARK  3 active torsions:
REMARK  status: ('A' for Active; 'I' for Inactive)
REMARK    1  A    between atoms: C4_4  and  C7_7 
REMARK    2  A    between atoms: C8_8  and  C9_9 
REMARK    3  A    between atoms: C9_9  and  N10_10 
ROOT
HETATM    1  C1  UNL     1     -33.979   5.966   6.459  1.00 20.00     0.032 C 
HETATM    2  C2  UNL     1     -34.309   4.667   5.732  1.00 20.00     0.038 C 
HETATM    3  C3  UNL     1     -33.880   7.019   5.368  1.00 20.00     0.273 C 
HETATM    4  C4  UNL     1     -34.390   5.043   4.251  1.00 20.00     0.237 C 
HETATM    5  N10 UNL     1     -33.541   6.240   4.175  1.00 20.00     0.098 N 
ENDROOT
BRANCH   5   6
HETATM    6  C9  UNL     1     -33.742   7.014   2.956  1.00 20.00     0.219 C 
HETATM    7  C6  UNL     1     -32.989   6.360   1.802  1.00 20.00     0.043 C 
BRANCH   6   8
HETATM    8  C8  UNL     1     -33.300   8.471   3.140  1.00 20.00     0.031 C 
HETATM    9  C5  UNL     1     -33.551   9.323   1.902  1.00 20.00     0.007 C 
ENDBRANCH   6   8
ENDBRANCH   5   6
BRANCH   4  10
HETATM   10  C7  UNL     1     -33.916   3.907   3.353  1.00 20.00     0.150 C 
HETATM   11 CL11 UNL     1     -34.483   2.349   3.984  1.00 20.00    -0.128 Cl
ENDBRANCH   4  10
TORSDOF 3
