REMARK  3 active torsions:
REMARK  status: ('A' for Active; 'I' for Inactive)
REMARK    1  A    between atoms: C2_2  and  C10_10 
REMARK    2  A    between atoms: C3_3  and  C8_8 
REMARK    3  A    between atoms: C8_8  and  C10_10 
ROOT
HETATM    1  C4  UNL     1     -32.608   7.374   1.321  1.00 20.00     0.001 C 
HETATM    2  C5  UNL     1     -33.974   7.966   1.621  1.00 20.00     0.001 C 
HETATM    3  C6  UNL     1     -32.132   6.905   2.688  1.00 20.00     0.021 C 
HETATM    4  C7  UNL     1     -34.571   7.067   2.705  1.00 20.00     0.021 C 
HETATM    5  C8  UNL     1     -33.389   6.296   3.325  1.00 20.00     0.055 C 
ENDROOT
BRANCH   5   6
HETATM    6  C3  UNL     1     -33.488   4.832   2.974  1.00 20.00     0.182 C 
HETATM    7  O11 UNL     1     -34.491   4.231   3.450  1.00 20.00    -0.647 OA
HETATM    8  O12 UNL     1     -32.552   4.398   2.247  1.00 20.00    -0.647 OA
ENDBRANCH   5   6
BRANCH   5   9
HETATM    9  C10 UNL     1     -33.361   6.395   4.848  1.00 20.00     0.022 C 
HETATM   10  C9  UNL     1     -33.207   7.851   5.296  1.00 20.00     0.015 C 
BRANCH   9  11
HETATM   11  C2  UNL     1     -34.618   5.804   5.441  1.00 20.00    -0.031 C 
HETATM   12  C1  UNL     1     -34.633   4.765   6.284  1.00 20.00     0.007 C 
ENDBRANCH   9  11
ENDBRANCH   5   9
TORSDOF 3
