REMARK  3 active torsions:
REMARK  status: ('A' for Active; 'I' for Inactive)
REMARK    1  A    between atoms: C7_7  and  C9_9 
REMARK    2  A    between atoms: C8_8  and  C10_10 
REMARK    3  A    between atoms: C9_9  and  C10_10 
ROOT
HETATM    1  C1  UNL     1     -33.838   5.283   3.735  1.00 20.00     0.131 C 
HETATM    2  C2  UNL     1     -34.377   4.753   5.040  1.00 20.00     0.079 C 
HETATM    3  C3  UNL     1     -34.585   6.033   5.840  1.00 20.00     0.008 C 
HETATM    4  C4  UNL     1     -33.499   6.975   5.336  1.00 20.00     0.013 C 
HETATM    5  C7  UNL     1     -33.486   6.754   3.822  1.00 20.00     0.055 C 
HETATM    6  O11 UNL     1     -33.703   4.597   2.730  1.00 20.00    -0.298 OA
ENDROOT
BRANCH   5   7
HETATM    7  C9  UNL     1     -32.150   7.082   3.188  1.00 20.00     0.012 C 
BRANCH   7   8
HETATM    8  C10 UNL     1     -32.251   7.153   1.663  1.00 20.00     0.005 C 
BRANCH   8   9
HETATM    9  C8  UNL     1     -33.257   8.202   1.216  1.00 20.00    -0.014 A 
HETATM   10  C5  UNL     1     -32.818   9.621   0.981  1.00 20.00     0.005 A 
HETATM   11  C6  UNL     1     -33.206   8.751  -0.182  1.00 20.00     0.005 A 
ENDBRANCH   8   9
ENDBRANCH   7   8
ENDBRANCH   5   7
TORSDOF 3
