REMARK  4 active torsions:
REMARK  status: ('A' for Active; 'I' for Inactive)
REMARK    1  A    between atoms: C1_1  and  C10_10 
REMARK    2  A    between atoms: C5_5  and  C9_9 
REMARK    3  A    between atoms: C9_9  and  C10_10 
REMARK    4  A    between atoms: C10_10  and  C11_11 
ROOT
HETATM    1  C10 UNL     1     -33.645   5.943   3.230  1.00 20.00     0.058 C 
ENDROOT
BRANCH   1   2
HETATM    2  C1  UNL     1     -33.727   6.470   4.667  1.00 20.00     0.127 C 
HETATM    3  C6  UNL     1     -32.568   7.306   5.151  1.00 20.00     0.091 C 
HETATM    4  O12 UNL     1     -34.692   6.247   5.398  1.00 20.00    -0.298 OA
ENDBRANCH   1   2
BRANCH   1   5
HETATM    5  C9  UNL     1     -34.200   6.973   2.230  1.00 20.00     0.017 C 
BRANCH   5   6
HETATM    6  C5  UNL     1     -33.169   8.052   1.935  1.00 20.00    -0.014 C 
HETATM    7  C3  UNL     1     -33.597   9.141   0.918  1.00 20.00     0.005 C 
HETATM    8  C2  UNL     1     -32.888   8.321  -0.177  1.00 20.00     0.001 C 
HETATM    9  C4  UNL     1     -32.048   7.668   0.938  1.00 20.00     0.005 C 
ENDBRANCH   5   6
ENDBRANCH   1   5
BRANCH   1  10
HETATM   10  C11 UNL     1     -34.327   4.552   3.154  1.00 20.00    -0.012 C 
HETATM   11  C7  UNL     1     -33.707   3.511   4.091  1.00 20.00     0.010 C 
HETATM   12  C8  UNL     1     -34.338   4.015   1.719  1.00 20.00     0.010 C 
ENDBRANCH   1  10
TORSDOF 4
