REMARK  5 active torsions:
REMARK  status: ('A' for Active; 'I' for Inactive)
REMARK    1  A    between atoms: C1_1  and  C10_10 
REMARK    2  A    between atoms: C4_4  and  C8_8 
REMARK    3  A    between atoms: C8_8  and  C9_9 
REMARK    4  A    between atoms: C9_9  and  C10_10 
REMARK    5  A    between atoms: C10_10  and  C11_11 
ROOT
HETATM    1  C10 UNL     1     -33.643   6.492   4.293  1.00 20.00     0.058 C 
ENDROOT
BRANCH   1   2
HETATM    2  C1  UNL     1     -34.588   5.491   3.622  1.00 20.00     0.127 C 
HETATM    3  C5  UNL     1     -36.016   5.933   3.421  1.00 20.00     0.091 C 
HETATM    4  O12 UNL     1     -34.222   4.368   3.275  1.00 20.00    -0.298 OA
ENDBRANCH   1   2
BRANCH   1   5
HETATM    5  C9  UNL     1     -33.474   7.759   3.432  1.00 20.00     0.013 C 
BRANCH   5   6
HETATM    6  C8  UNL     1     -32.880   7.450   2.052  1.00 20.00     0.005 C 
BRANCH   6   7
HETATM    7  C4  UNL     1     -32.687   8.695   1.241  1.00 20.00    -0.014 A 
HETATM    8  C2  UNL     1     -32.545   8.612  -0.253  1.00 20.00     0.005 A 
HETATM    9  C3  UNL     1     -33.791   9.197   0.352  1.00 20.00     0.005 A 
ENDBRANCH   6   7
ENDBRANCH   5   6
ENDBRANCH   1   5
BRANCH   1  10
HETATM   10  C11 UNL     1     -34.131   6.768   5.739  1.00 20.00    -0.012 C 
HETATM   11  C6  UNL     1     -34.209   5.512   6.613  1.00 20.00     0.010 C 
HETATM   12  C7  UNL     1     -33.261   7.824   6.429  1.00 20.00     0.010 C 
ENDBRANCH   1  10
TORSDOF 5
