REMARK  3 active torsions:
REMARK  status: ('A' for Active; 'I' for Inactive)
REMARK    1  A    between atoms: C7_7  and  C9_9 
REMARK    2  A    between atoms: C8_8  and  C10_10 
REMARK    3  A    between atoms: C9_9  and  C10_10 
ROOT
HETATM    1  C1  UNL     1     -33.991   6.265   4.866  1.00 20.00     0.131 C 
HETATM    2  C2  UNL     1     -34.442   4.871   5.226  1.00 20.00     0.079 C 
HETATM    3  C3  UNL     1     -34.722   4.266   3.856  1.00 20.00     0.008 C 
HETATM    4  C4  UNL     1     -33.733   4.957   2.926  1.00 20.00     0.013 C 
HETATM    5  C7  UNL     1     -33.755   6.419   3.377  1.00 20.00     0.055 C 
HETATM    6  O11 UNL     1     -33.836   7.160   5.688  1.00 20.00    -0.298 OA
ENDROOT
BRANCH   5   7
HETATM    7  C9  UNL     1     -32.472   7.158   3.054  1.00 20.00     0.012 C 
BRANCH   7   8
HETATM    8  C10 UNL     1     -32.245   7.262   1.546  1.00 20.00     0.005 C 
BRANCH   8   9
HETATM    9  C8  UNL     1     -33.392   7.981   0.854  1.00 20.00    -0.014 A 
HETATM   10  C5  UNL     1     -33.359   9.475   0.686  1.00 20.00     0.005 A 
HETATM   11  C6  UNL     1     -33.196   8.580  -0.511  1.00 20.00     0.005 A 
ENDBRANCH   8   9
ENDBRANCH   7   8
ENDBRANCH   5   7
TORSDOF 3
