REMARK  4 active torsions:
REMARK  status: ('A' for Active; 'I' for Inactive)
REMARK    1  A    between atoms: C1_1  and  C8_8 
REMARK    2  A    between atoms: C1_1  and  C10_10 
REMARK    3  A    between atoms: C5_5  and  C9_9 
REMARK    4  A    between atoms: C9_9  and  C10_10 
ROOT
HETATM    1  C7  UNL     1     -32.287   7.385   3.980  1.00 20.00     0.018 C 
HETATM    2  C10 UNL     1     -32.992   6.652   2.841  1.00 20.00     0.051 C 
ENDROOT
BRANCH   2   3
HETATM    3  C1  UNL     1     -33.854   5.541   3.440  1.00 20.00     0.130 C 
HETATM    4  O11 UNL     1     -33.636   4.353   3.201  1.00 20.00    -0.298 OA
BRANCH   3   5
HETATM    5  C8  UNL     1     -34.969   5.988   4.372  1.00 20.00     0.074 C 
HETATM    6  C6  UNL     1     -34.815   5.433   5.777  1.00 20.00     0.013 C 
ENDBRANCH   3   5
ENDBRANCH   2   3
BRANCH   2   7
HETATM    7  C9  UNL     1     -33.825   7.628   1.999  1.00 20.00     0.016 C 
BRANCH   7   8
HETATM    8  C5  UNL     1     -32.948   8.692   1.373  1.00 20.00    -0.014 C 
HETATM    9  C3  UNL     1     -33.501   9.392   0.104  1.00 20.00     0.005 C 
HETATM   10  C2  UNL     1     -32.053   9.408  -0.428  1.00 20.00     0.001 C 
HETATM   11  C4  UNL     1     -31.780   8.194   0.483  1.00 20.00     0.005 C 
ENDBRANCH   7   8
ENDBRANCH   2   7
TORSDOF 4
