REMARK  4 active torsions:
REMARK  status: ('A' for Active; 'I' for Inactive)
REMARK    1  A    between atoms: C1_1  and  C6_6 
REMARK    2  A    between atoms: C4_4  and  C6_6 
REMARK    3  A    between atoms: C5_5  and  C6_6 
REMARK    4  A    between atoms: C5_5  and  C7_7 
ROOT
HETATM    1  C6  UNL     1     -33.069   5.939   3.236  1.00 20.00     0.063 C 
ENDROOT
BRANCH   1   2
HETATM    2  C1  UNL     1     -33.499   4.477   3.336  1.00 20.00     0.127 C 
HETATM    3  C2  UNL     1     -32.639   3.466   2.621  1.00 20.00     0.091 C 
HETATM    4  O8  UNL     1     -34.495   4.131   3.970  1.00 20.00    -0.298 OA
ENDBRANCH   1   2
BRANCH   1   5
HETATM    5  C4  UNL     1     -34.036   6.822   4.042  1.00 20.00     0.008 C 
HETATM    6  C3  UNL     1     -34.101   6.439   5.515  1.00 20.00     0.006 C 
ENDBRANCH   1   5
BRANCH   1   7
HETATM    7  C5  UNL     1     -33.037   6.386   1.764  1.00 20.00     0.129 C 
BRANCH   7   8
HETATM    8  C7  UNL     1     -32.607   7.828   1.578  1.00 20.00     0.388 C 
HETATM    9  F9  UNL     1     -33.449   8.688   2.188  1.00 20.00    -0.171 F 
HETATM   10  F10 UNL     1     -32.545   8.158   0.271  1.00 20.00    -0.171 F 
HETATM   11  F11 UNL     1     -31.378   8.022   2.107  1.00 20.00    -0.171 F 
ENDBRANCH   7   8
ENDBRANCH   1   7
TORSDOF 4
