REMARK  4 active torsions:
REMARK  status: ('A' for Active; 'I' for Inactive)
REMARK    1  A    between atoms: C1_1  and  C9_9 
REMARK    2  A    between atoms: C4_4  and  C8_8 
REMARK    3  A    between atoms: C8_8  and  C9_9 
REMARK    4  A    between atoms: C9_9  and  C10_10 
ROOT
HETATM    1  C9  UNL     1     -32.964   6.737   3.451  1.00 20.00     0.058 C 
ENDROOT
BRANCH   1   2
HETATM    2  C1  UNL     1     -33.861   6.437   4.657  1.00 20.00     0.127 C 
HETATM    3  C5  UNL     1     -33.232   6.571   6.021  1.00 20.00     0.091 C 
HETATM    4  O11 UNL     1     -35.044   6.120   4.537  1.00 20.00    -0.298 OA
ENDBRANCH   1   2
BRANCH   1   5
HETATM    5  C8  UNL     1     -33.486   7.949   2.659  1.00 20.00     0.017 C 
BRANCH   5   6
HETATM    6  C4  UNL     1     -32.381   8.553   1.793  1.00 20.00    -0.014 A 
HETATM    7  C2  UNL     1     -32.166   8.062   0.388  1.00 20.00     0.005 A 
HETATM    8  C3  UNL     1     -32.730   9.435   0.627  1.00 20.00     0.005 A 
ENDBRANCH   5   6
ENDBRANCH   1   5
BRANCH   1   9
HETATM    9  C10 UNL     1     -32.797   5.449   2.602  1.00 20.00    -0.012 C 
HETATM   10  C6  UNL     1     -34.115   4.913   2.035  1.00 20.00     0.010 C 
HETATM   11  C7  UNL     1     -32.089   4.346   3.396  1.00 20.00     0.010 C 
ENDBRANCH   1   9
TORSDOF 4
