REMARK  2 active torsions:
REMARK  status: ('A' for Active; 'I' for Inactive)
REMARK    1  A    between atoms: C3_3  and  C10_10 
REMARK    2  A    between atoms: C9_9  and  C10_10 
ROOT
HETATM    1  C1  UNL     1     -32.006   7.107   3.415  1.00 20.00     0.006 C 
HETATM    2  C2  UNL     1     -32.874   7.005   4.673  1.00 20.00     0.016 C 
HETATM    3  C3  UNL     1     -32.739   6.334   2.303  1.00 20.00    -0.006 C 
HETATM    4  C4  UNL     1     -33.770   5.457   3.047  1.00 20.00     0.000 C 
HETATM    5  C5  UNL     1     -34.173   6.370   4.206  1.00 20.00     0.062 C 
HETATM    6  C6  UNL     1     -33.127   4.124   3.453  1.00 20.00     0.011 C 
HETATM    7 BR11 UNL     1     -35.114   5.495   5.647  1.00 20.00    -0.091 Br
ENDROOT
BRANCH   3   8
HETATM    8  C10 UNL     1     -33.407   7.291   1.313  1.00 20.00    -0.014 C 
HETATM    9  C8  UNL     1     -34.180   6.496   0.255  1.00 20.00     0.010 C 
BRANCH   8  10
HETATM   10  C9  UNL     1     -32.397   8.224   0.616  1.00 20.00     0.000 C 
HETATM   11  C7  UNL     1     -33.042   9.182  -0.376  1.00 20.00     0.005 C 
ENDBRANCH   8  10
ENDBRANCH   3   8
TORSDOF 2
