REMARK  4 active torsions:
REMARK  status: ('A' for Active; 'I' for Inactive)
REMARK    1  A    between atoms: C4_4  and  C6_6 
REMARK    2  A    between atoms: C6_6  and  C8_8 
REMARK    3  A    between atoms: C7_7  and  C8_8 
REMARK    4  A    between atoms: C8_8  and  O10_10 
ROOT
HETATM    1  C6  UNL     1     -32.099   7.103   3.362  1.00 20.00     0.038 C 
ENDROOT
BRANCH   1   2
HETATM    2  C4  UNL     1     -33.425   6.894   4.068  1.00 20.00     0.014 C 
HETATM    3  C1  UNL     1     -33.924   5.466   4.042  1.00 20.00     0.033 C 
HETATM    4  C2  UNL     1     -34.925   5.470   5.179  1.00 20.00     0.168 C 
HETATM    5  O9  UNL     1     -34.448   6.415   6.148  1.00 20.00    -0.391 OA
HETATM    6  C3  UNL     1     -33.374   7.166   5.561  1.00 20.00     0.172 C 
ENDBRANCH   1   2
BRANCH   1   7
HETATM    7  C8  UNL     1     -32.253   7.166   1.839  1.00 20.00     0.118 C 
BRANCH   7   8
HETATM    8  C7  UNL     1     -32.771   8.542   1.404  1.00 20.00     0.027 C 
HETATM    9  C5  UNL     1     -32.970   8.650  -0.102  1.00 20.00     0.007 C 
ENDBRANCH   7   8
BRANCH   7  10
HETATM   10  O10 UNL     1     -33.172   6.154   1.435  1.00 20.00    -0.396 OA
HETATM   11  H26 UNL     1     -34.010   6.347   1.883  1.00 20.00     0.210 HD
ENDBRANCH   7  10
ENDBRANCH   1   7
TORSDOF 4
