REMARK  4 active torsions:
REMARK  status: ('A' for Active; 'I' for Inactive)
REMARK    1  A    between atoms: C4_4  and  C5_5 
REMARK    2  A    between atoms: C5_5  and  C6_6 
REMARK    3  A    between atoms: C6_6  and  C7_7 
REMARK    4  A    between atoms: C7_7  and  O9_9 
ROOT
HETATM    1  C1  UNL     1     -36.051   4.769   4.587  1.00 20.00     0.066 C 
HETATM    2  C6  UNL     1     -34.879   5.642   4.364  1.00 20.00     0.121 C 
HETATM    3  N8  UNL     1     -36.972   4.085   4.762  1.00 20.00    -0.197 NA
ENDROOT
BRANCH   2   4
HETATM    4  C5  UNL     1     -33.948   5.027   3.297  1.00 20.00     0.021 C 
BRANCH   4   5
HETATM    5  C4  UNL     1     -32.704   5.882   3.028  1.00 20.00    -0.003 C 
HETATM    6  C2  UNL     1     -33.081   7.261   2.511  1.00 20.00     0.005 C 
ENDBRANCH   4   5
ENDBRANCH   2   4
BRANCH   2   7
HETATM    7  C7  UNL     1     -34.106   5.893   5.679  1.00 20.00     0.131 C 
HETATM    8  C3  UNL     1     -33.175   4.748   6.066  1.00 20.00     0.040 C 
BRANCH   7   9
HETATM    9  O9  UNL     1     -33.354   7.100   5.578  1.00 20.00    -0.395 OA
HETATM   10  H22 UNL     1     -32.960   7.252   6.451  1.00 20.00     0.210 HD
ENDBRANCH   7   9
ENDBRANCH   2   7
TORSDOF 4
