REMARK  3 active torsions:
REMARK  status: ('A' for Active; 'I' for Inactive)
REMARK    1  A    between atoms: C4_4  and  C6_6 
REMARK    2  A    between atoms: C5_5  and  O8_8 
REMARK    3  A    between atoms: C6_6  and  C7_7 
ROOT
HETATM    1  C1  UNL     1     -34.592   4.945   5.655  1.00 20.00     0.003 C 
HETATM    2  C2  UNL     1     -34.856   5.491   4.251  1.00 20.00     0.007 C 
HETATM    3  C3  UNL     1     -33.590   5.898   6.305  1.00 20.00     0.032 C 
HETATM    4  C4  UNL     1     -34.350   6.931   4.290  1.00 20.00     0.023 C 
HETATM    5  C5  UNL     1     -33.119   6.819   5.186  1.00 20.00     0.122 C 
ENDROOT
BRANCH   4   6
HETATM    6  C6  UNL     1     -34.042   7.495   2.911  1.00 20.00     0.124 C 
BRANCH   6   7
HETATM    7  C7  UNL     1     -32.718   7.000   2.399  1.00 20.00     0.388 C 
HETATM    8  F9  UNL     1     -31.700   7.353   3.212  1.00 20.00    -0.171 F 
HETATM    9  F10 UNL     1     -32.474   7.537   1.183  1.00 20.00    -0.171 F 
HETATM   10  F11 UNL     1     -32.700   5.657   2.264  1.00 20.00    -0.171 F 
ENDBRANCH   6   7
ENDBRANCH   4   6
BRANCH   5  11
HETATM   11  O8  UNL     1     -32.731   8.085   5.683  1.00 20.00    -0.395 OA
HETATM   12  H22 UNL     1     -32.004   7.935   6.311  1.00 20.00     0.210 HD
ENDBRANCH   5  11
TORSDOF 3
