REMARK  4 active torsions:
REMARK  status: ('A' for Active; 'I' for Inactive)
REMARK    1  A    between atoms: C1_1  and  C7_7 
REMARK    2  A    between atoms: C6_6  and  C8_8 
REMARK    3  A    between atoms: C6_6  and  O10_10 
REMARK    4  A    between atoms: C7_7  and  C8_8 
ROOT
HETATM    1  C3  UNL     1     -33.461   7.063   5.708  1.00 20.00     0.018 C 
HETATM    2  C7  UNL     1     -34.001   6.742   4.312  1.00 20.00     0.056 C 
ENDROOT
BRANCH   2   3
HETATM    3  C1  UNL     1     -34.122   5.227   4.123  1.00 20.00     0.127 C 
HETATM    4  C2  UNL     1     -34.936   4.471   5.143  1.00 20.00     0.091 C 
HETATM    5  O9  UNL     1     -33.565   4.632   3.201  1.00 20.00    -0.298 OA
ENDBRANCH   2   3
BRANCH   2   6
HETATM    6  C8  UNL     1     -33.191   7.378   3.156  1.00 20.00     0.016 C 
HETATM    7  C4  UNL     1     -31.742   6.870   3.150  1.00 20.00     0.013 C 
BRANCH   6   8
HETATM    8  C6  UNL     1     -33.840   7.170   1.780  1.00 20.00     0.172 C 
BRANCH   8   9
HETATM    9  O10 UNL     1     -33.092   7.865   0.788  1.00 20.00    -0.396 OA
HETATM   10  C5  UNL     1     -33.390   9.253   0.789  1.00 20.00     0.201 C 
ENDBRANCH   8   9
ENDBRANCH   6   8
ENDBRANCH   2   6
TORSDOF 4
