REMARK  2 active torsions:
REMARK  status: ('A' for Active; 'I' for Inactive)
REMARK    1  A    between atoms: C1_1  and  C9_9 
REMARK    2  A    between atoms: C6_6  and  C9_9 
ROOT
HETATM    1  C2  UNL     1     -34.463   7.319   4.391  1.00 20.00     0.031 C 
HETATM    2  C3  UNL     1     -35.089   4.909   4.071  1.00 20.00     0.031 C 
HETATM    3  C4  UNL     1     -34.023   6.945   5.801  1.00 20.00     0.168 C 
HETATM    4  C5  UNL     1     -34.614   4.670   5.500  1.00 20.00     0.168 C 
HETATM    5  C6  UNL     1     -34.405   6.124   3.431  1.00 20.00     0.000 C 
HETATM    6  O11 UNL     1     -34.785   5.843   6.293  1.00 20.00    -0.391 OA
ENDROOT
BRANCH   5   7
HETATM    7  C9  UNL     1     -32.967   5.806   3.014  1.00 20.00     0.055 C 
HETATM    8  C8  UNL     1     -32.927   4.593   2.089  1.00 20.00     0.018 C 
BRANCH   7   9
HETATM    9  C1  UNL     1     -32.339   7.025   2.347  1.00 20.00     0.127 C 
HETATM   10  C7  UNL     1     -33.000   7.531   1.089  1.00 20.00     0.091 C 
HETATM   11  O10 UNL     1     -31.324   7.568   2.786  1.00 20.00    -0.298 OA
ENDBRANCH   7   9
ENDBRANCH   5   7
TORSDOF 2
