REMARK  5 active torsions:
REMARK  status: ('A' for Active; 'I' for Inactive)
REMARK    1  A    between atoms: C1_1  and  C7_7 
REMARK    2  A    between atoms: C1_1  and  C10_10 
REMARK    3  A    between atoms: C4_4  and  C8_8 
REMARK    4  A    between atoms: C8_8  and  C9_9 
REMARK    5  A    between atoms: C9_9  and  C10_10 
ROOT
HETATM    1  C6  UNL     1     -33.395   4.331   2.961  1.00 20.00     0.018 C 
HETATM    2  C10 UNL     1     -33.568   5.847   2.930  1.00 20.00     0.051 C 
ENDROOT
BRANCH   2   3
HETATM    3  C1  UNL     1     -33.974   6.315   4.327  1.00 20.00     0.130 C 
HETATM    4  O11 UNL     1     -33.294   7.120   4.962  1.00 20.00    -0.298 OA
BRANCH   3   5
HETATM    5  C7  UNL     1     -35.244   5.701   4.894  1.00 20.00     0.074 C 
HETATM    6  C5  UNL     1     -34.996   4.924   6.175  1.00 20.00     0.013 C 
ENDBRANCH   3   5
ENDBRANCH   2   3
BRANCH   2   7
HETATM    7  C9  UNL     1     -32.281   6.536   2.452  1.00 20.00     0.012 C 
BRANCH   7   8
HETATM    8  C8  UNL     1     -32.534   7.956   1.936  1.00 20.00     0.005 C 
BRANCH   8   9
HETATM    9  C4  UNL     1     -33.463   7.960   0.761  1.00 20.00    -0.014 A 
HETATM   10  C2  UNL     1     -33.508   9.144  -0.165  1.00 20.00     0.005 A 
HETATM   11  C3  UNL     1     -32.918   7.844  -0.635  1.00 20.00     0.005 A 
ENDBRANCH   8   9
ENDBRANCH   7   8
ENDBRANCH   2   7
TORSDOF 5
