REMARK  3 active torsions:
REMARK  status: ('A' for Active; 'I' for Inactive)
REMARK    1  A    between atoms: C2_2  and  C11_11 
REMARK    2  A    between atoms: C3_3  and  C9_9 
REMARK    3  A    between atoms: C9_9  and  C11_11 
ROOT
HETATM    1  C1  UNL     1     -32.768   8.057   0.495  1.00 20.00    -0.111 C 
HETATM    2  C2  UNL     1     -33.530   7.731   1.364  1.00 20.00    -0.106 C 
HETATM    3  C10 UNL     1     -31.840   8.453  -0.563  1.00 20.00     0.112 C 
ENDROOT
BRANCH   2   4
HETATM    4  C11 UNL     1     -34.468   7.346   2.419  1.00 20.00     0.114 C 
BRANCH   4   5
HETATM    5  C9  UNL     1     -33.911   6.187   3.246  1.00 20.00     0.058 C 
HETATM    6  C7  UNL     1     -35.017   5.506   4.056  1.00 20.00     0.021 C 
HETATM    7  C5  UNL     1     -34.527   4.265   4.804  1.00 20.00     0.001 C 
HETATM    8  C4  UNL     1     -33.816   3.289   3.873  1.00 20.00     0.000 C 
HETATM    9  C6  UNL     1     -32.669   3.964   3.128  1.00 20.00     0.001 C 
HETATM   10  C8  UNL     1     -33.140   5.201   2.364  1.00 20.00     0.021 C 
BRANCH   5  11
HETATM   11  C3  UNL     1     -32.942   6.890   4.195  1.00 20.00     0.182 C 
HETATM   12  O12 UNL     1     -31.982   7.490   3.637  1.00 20.00    -0.647 OA
HETATM   13  O13 UNL     1     -33.226   6.780   5.420  1.00 20.00    -0.647 OA
ENDBRANCH   5  11
ENDBRANCH   4   5
ENDBRANCH   2   4
TORSDOF 3
