REMARK  4 active torsions:
REMARK  status: ('A' for Active; 'I' for Inactive)
REMARK    1  A    between atoms: C1_1  and  C5_5 
REMARK    2  A    between atoms: C1_1  and  C8_8 
REMARK    3  A    between atoms: C5_5  and  C6_6 
REMARK    4  A    between atoms: C6_6  and  C7_7 
ROOT
HETATM    1  C1  UNL     1     -33.803   6.650   4.065  1.00 20.00     0.134 C 
HETATM    2  O9  UNL     1     -33.303   7.306   4.981  1.00 20.00    -0.297 OA
ENDROOT
BRANCH   1   3
HETATM    3  C5  UNL     1     -33.764   7.160   2.627  1.00 20.00     0.084 C 
BRANCH   3   4
HETATM    4  C6  UNL     1     -32.349   7.422   2.116  1.00 20.00     0.078 C 
BRANCH   4   5
HETATM    5  C7  UNL     1     -32.328   7.930   0.686  1.00 20.00     0.353 C 
HETATM    6  F10 UNL     1     -31.044   8.166   0.316  1.00 20.00    -0.214 F 
HETATM    7  F11 UNL     1     -32.977   9.119   0.610  1.00 20.00    -0.214 F 
ENDBRANCH   4   5
ENDBRANCH   3   4
ENDBRANCH   1   3
BRANCH   1   8
HETATM    8  C8  UNL     1     -34.491   5.295   4.333  1.00 20.00     0.009 C 
HETATM    9  C2  UNL     1     -33.769   4.204   3.533  1.00 20.00     0.022 C 
HETATM   10  C3  UNL     1     -35.974   5.351   3.942  1.00 20.00     0.022 C 
HETATM   11  C4  UNL     1     -34.396   4.959   5.832  1.00 20.00     0.022 C 
ENDBRANCH   1   8
TORSDOF 4
