REMARK  4 active torsions:
REMARK  status: ('A' for Active; 'I' for Inactive)
REMARK    1  A    between atoms: C1_1  and  C6_6 
REMARK    2  A    between atoms: C4_4  and  C6_6 
REMARK    3  A    between atoms: C5_5  and  C6_6 
REMARK    4  A    between atoms: C5_5  and  C7_7 
ROOT
HETATM    1  C6  UNL     1     -34.197   5.152   3.570  1.00 20.00     0.059 C 
ENDROOT
BRANCH   1   2
HETATM    2  C1  UNL     1     -34.186   5.812   4.947  1.00 20.00     0.127 C 
HETATM    3  C2  UNL     1     -34.389   4.907   6.135  1.00 20.00     0.091 C 
HETATM    4  O8  UNL     1     -34.018   7.023   5.090  1.00 20.00    -0.298 OA
ENDBRANCH   1   2
BRANCH   1   5
HETATM    5  C4  UNL     1     -33.091   4.085   3.497  1.00 20.00     0.008 C 
HETATM    6  C3  UNL     1     -33.055   3.359   2.158  1.00 20.00     0.006 C 
ENDBRANCH   1   5
BRANCH   1   7
HETATM    7  C5  UNL     1     -33.992   6.209   2.468  1.00 20.00     0.083 C 
BRANCH   7   8
HETATM    8  C7  UNL     1     -32.540   6.617   2.277  1.00 20.00     0.353 C 
HETATM    9  F9  UNL     1     -32.040   7.162   3.411  1.00 20.00    -0.214 F 
HETATM   10  F10 UNL     1     -32.441   7.556   1.305  1.00 20.00    -0.214 F 
ENDBRANCH   7   8
ENDBRANCH   1   7
TORSDOF 4
