REMARK  3 active torsions:
REMARK  status: ('A' for Active; 'I' for Inactive)
REMARK    1  A    between atoms: C1_1  and  C7_7 
REMARK    2  A    between atoms: C7_7  and  C8_8 
REMARK    3  A    between atoms: C7_7  and  C9_9 
ROOT
HETATM    1  C7  UNL     1     -33.996   6.793   3.413  1.00 20.00     0.061 C 
ENDROOT
BRANCH   1   2
HETATM    2  C1  UNL     1     -34.299   5.595   2.505  1.00 20.00     0.128 C 
HETATM    3  C2  UNL     1     -33.737   4.260   2.928  1.00 20.00     0.091 C 
HETATM    4  O10 UNL     1     -34.951   5.704   1.467  1.00 20.00    -0.298 OA
ENDBRANCH   1   2
BRANCH   1   5
HETATM    5  C8  UNL     1     -32.731   7.556   2.928  1.00 20.00    -0.011 C 
HETATM    6  C3  UNL     1     -32.935   8.184   1.543  1.00 20.00     0.010 C 
HETATM    7  C4  UNL     1     -31.447   6.721   2.929  1.00 20.00     0.010 C 
ENDBRANCH   1   5
BRANCH   1   8
HETATM    8  C9  UNL     1     -33.958   6.326   4.898  1.00 20.00    -0.011 C 
HETATM    9  C5  UNL     1     -33.664   7.475   5.869  1.00 20.00     0.010 C 
HETATM   10  C6  UNL     1     -35.288   5.674   5.306  1.00 20.00     0.010 C 
ENDBRANCH   1   8
TORSDOF 3
