REMARK  2 active torsions:
REMARK  status: ('A' for Active; 'I' for Inactive)
REMARK    1  A    between atoms: C5_5  and  C11_11 
REMARK    2  A    between atoms: C6_6  and  C10_10 
ROOT
HETATM    1  C1  UNL     1     -33.747   4.570   3.415  1.00 20.00     0.131 C 
HETATM    2  C2  UNL     1     -32.865   4.340   2.207  1.00 20.00     0.079 C 
HETATM    3  C3  UNL     1     -32.905   5.545   1.278  1.00 20.00     0.012 C 
HETATM    4  C4  UNL     1     -33.546   7.050   3.195  1.00 20.00     0.017 C 
HETATM    5  C5  UNL     1     -33.513   5.871   4.174  1.00 20.00     0.059 C 
HETATM    6  C6  UNL     1     -32.575   6.847   2.021  1.00 20.00    -0.014 C 
HETATM    7  O12 UNL     1     -34.535   3.707   3.797  1.00 20.00    -0.298 OA
ENDROOT
BRANCH   5   8
HETATM    8  C11 UNL     1     -34.535   6.067   5.289  1.00 20.00    -0.011 C 
HETATM    9  C8  UNL     1     -34.175   5.217   6.506  1.00 20.00     0.010 C 
HETATM   10  C9  UNL     1     -34.635   7.541   5.675  1.00 20.00     0.010 C 
ENDBRANCH   5   8
BRANCH   6  11
HETATM   11  C10 UNL     1     -32.629   8.038   1.066  1.00 20.00     0.000 C 
HETATM   12  C7  UNL     1     -31.672   7.879  -0.069  1.00 20.00     0.005 C 
ENDBRANCH   6  11
TORSDOF 2
