REMARK  3 active torsions:
REMARK  status: ('A' for Active; 'I' for Inactive)
REMARK    1  A    between atoms: C1_1  and  C5_5 
REMARK    2  A    between atoms: C2_2  and  C7_7 
REMARK    3  A    between atoms: C5_5  and  C6_6 
ROOT
HETATM    1  C1  UNL     1     -32.531   6.514   2.769  1.00 20.00    -0.029 C 
HETATM    2  C2  UNL     1     -33.681   6.594   3.455  1.00 20.00    -0.027 C 
ENDROOT
BRANCH   1   3
HETATM    3  C5  UNL     1     -32.252   7.293   1.515  1.00 20.00     0.042 C 
BRANCH   3   4
HETATM    4  C6  UNL     1     -33.378   8.260   1.160  1.00 20.00     0.118 C 
HETATM    5 CL8  UNL     1     -33.009   9.186  -0.316  1.00 20.00    -0.130 Cl
ENDBRANCH   3   4
ENDBRANCH   1   3
BRANCH   2   6
HETATM    6  C7  UNL     1     -33.959   5.813   4.715  1.00 20.00    -0.001 C 
HETATM    7  C3  UNL     1     -35.161   4.891   4.510  1.00 20.00     0.013 C 
HETATM    8  C4  UNL     1     -34.208   6.768   5.882  1.00 20.00     0.013 C 
ENDBRANCH   2   6
TORSDOF 3
