REMARK  2 active torsions:
REMARK  status: ('A' for Active; 'I' for Inactive)
REMARK    1  A    between atoms: C7_7  and  C8_8 
REMARK    2  A    between atoms: C8_8  and  S9_9 
ROOT
HETATM    1  C1  UNL     1     -33.993   6.087   6.246  1.00 20.00     0.005 C 
HETATM    2  C2  UNL     1     -34.165   7.207   5.210  1.00 20.00     0.005 C 
HETATM    3  C3  UNL     1     -35.642   5.440   4.655  1.00 20.00     0.009 C 
HETATM    4  C4  UNL     1     -33.485   4.440   4.433  1.00 20.00     0.010 C 
HETATM    5  C5  UNL     1     -34.517   4.846   5.502  1.00 20.00    -0.014 C 
HETATM    6  C6  UNL     1     -34.720   6.463   3.984  1.00 20.00    -0.009 C 
HETATM    7  C7  UNL     1     -33.661   5.527   3.353  1.00 20.00    -0.001 C 
ENDROOT
BRANCH   7   8
HETATM    8  C8  UNL     1     -32.357   6.189   2.939  1.00 20.00     0.075 C 
BRANCH   8   9
HETATM    9  S9  UNL     1     -32.660   7.456   1.679  1.00 20.00    -0.182 SA
HETATM   10  H23 UNL     1     -31.381   7.828   1.537  1.00 20.00     0.101 HD
ENDBRANCH   8   9
ENDBRANCH   7   8
TORSDOF 2
