REMARK  4 active torsions:
REMARK  status: ('A' for Active; 'I' for Inactive)
REMARK    1  A    between atoms: C6_6  and  C7_7 
REMARK    2  A    between atoms: C6_6  and  O10_10 
REMARK    3  A    between atoms: C7_7  and  C8_8 
REMARK    4  A    between atoms: C7_7  and  O9_9 
ROOT
HETATM    1  C7  UNL     1     -33.754   5.652   2.616  1.00 20.00     0.154 C 
ENDROOT
BRANCH   1   2
HETATM    2  C6  UNL     1     -34.002   5.718   4.139  1.00 20.00     0.146 C 
HETATM    3  C1  UNL     1     -35.303   5.037   4.556  1.00 20.00     0.042 C 
BRANCH   2   4
HETATM    4  O10 UNL     1     -34.053   7.066   4.594  1.00 20.00    -0.388 OA
HETATM    5  C5  UNL     1     -33.732   7.161   5.974  1.00 20.00     0.202 C 
ENDBRANCH   2   4
ENDBRANCH   1   2
BRANCH   1   6
HETATM    6  C8  UNL     1     -32.736   6.680   2.022  1.00 20.00    -0.023 C 
HETATM    7  C2  UNL     1     -33.511   7.948   1.595  1.00 20.00     0.017 C 
HETATM    8  C3  UNL     1     -31.695   7.093   3.078  1.00 20.00     0.017 C 
HETATM    9  C4  UNL     1     -31.998   6.150   0.778  1.00 20.00     0.017 C 
ENDBRANCH   1   6
BRANCH   1  10
HETATM   10  O9  UNL     1     -33.332   4.330   2.264  1.00 20.00    -0.392 OA
HETATM   11  H28 UNL     1     -32.516   4.166   2.759  1.00 20.00     0.210 HD
ENDBRANCH   1  10
TORSDOF 4
