REMARK  2 active torsions:
REMARK  status: ('A' for Active; 'I' for Inactive)
REMARK    1  A    between atoms: C4_4  and  C7_7 
REMARK    2  A    between atoms: C7_7  and  O8_8 
ROOT
HETATM    1  C1  UNL     1     -33.361   6.961   4.071  1.00 20.00     0.008 C 
HETATM    2  C2  UNL     1     -32.124   7.555   3.395  1.00 20.00     0.020 C 
HETATM    3  C3  UNL     1     -32.726   5.646   2.115  1.00 20.00     0.027 C 
HETATM    4  C4  UNL     1     -33.816   5.790   3.184  1.00 20.00     0.011 C 
HETATM    5  C5  UNL     1     -32.163   7.053   1.957  1.00 20.00     0.082 C 
HETATM    6 CL9  UNL     1     -33.241   8.068   0.959  1.00 20.00    -0.125 Cl
ENDROOT
BRANCH   4   7
HETATM    7  C7  UNL     1     -34.045   4.505   3.964  1.00 20.00     0.171 C 
BRANCH   7   8
HETATM    8  O8  UNL     1     -35.310   4.577   4.598  1.00 20.00    -0.396 OA
HETATM    9  C6  UNL     1     -35.258   5.350   5.792  1.00 20.00     0.201 C 
ENDBRANCH   7   8
ENDBRANCH   4   7
TORSDOF 2
