REMARK  2 active torsions:
REMARK  status: ('A' for Active; 'I' for Inactive)
REMARK    1  A    between atoms: C4_4  and  C7_7 
REMARK    2  A    between atoms: C7_7  and  O8_8 
ROOT
HETATM    1  C1  UNL     1     -33.345   4.925   3.486  1.00 20.00     0.008 C 
HETATM    2  C2  UNL     1     -34.452   4.041   4.066  1.00 20.00     0.016 C 
HETATM    3  C3  UNL     1     -34.273   6.124   5.327  1.00 20.00     0.022 C 
HETATM    4  C4  UNL     1     -33.698   6.343   3.928  1.00 20.00     0.011 C 
HETATM    5  C5  UNL     1     -35.104   4.855   5.184  1.00 20.00     0.058 C 
HETATM    6 BR9  UNL     1     -36.943   5.315   4.696  1.00 20.00    -0.091 Br
ENDROOT
BRANCH   4   7
HETATM    7  C7  UNL     1     -32.508   7.287   3.911  1.00 20.00     0.171 C 
BRANCH   7   8
HETATM    8  O8  UNL     1     -31.989   7.346   2.593  1.00 20.00    -0.396 OA
HETATM    9  C6  UNL     1     -32.753   8.217   1.767  1.00 20.00     0.201 C 
ENDBRANCH   7   8
ENDBRANCH   4   7
TORSDOF 2
