REMARK  2 active torsions:
REMARK  status: ('A' for Active; 'I' for Inactive)
REMARK    1  A    between atoms: C3_3  and  C4_4 
REMARK    2  A    between atoms: C3_3  and  S9_9 
ROOT
HETATM    1  C1  UNL     1     -34.000   7.158   5.272  1.00 20.00     0.083 C 
HETATM    2  C3  UNL     1     -33.681   6.911   3.859  1.00 20.00     0.261 C 
HETATM    3  N5  UNL     1     -34.251   7.358   6.387  1.00 20.00    -0.196 NA
ENDROOT
BRANCH   2   4
HETATM    4  C4  UNL     1     -33.985   5.473   3.473  1.00 20.00     0.412 C 
HETATM    5  F6  UNL     1     -33.693   5.240   2.173  1.00 20.00    -0.169 F 
HETATM    6  F7  UNL     1     -33.241   4.611   4.204  1.00 20.00    -0.169 F 
HETATM    7  F8  UNL     1     -35.284   5.155   3.667  1.00 20.00    -0.169 F 
ENDBRANCH   2   4
BRANCH   2   8
HETATM    8  S9  UNL     1     -31.929   7.291   3.512  1.00 20.00    -0.145 SA
HETATM    9  C2  UNL     1     -32.063   7.485   1.721  1.00 20.00     0.091 C 
ENDBRANCH   2   8
TORSDOF 2
