REMARK  4 active torsions:
REMARK  status: ('A' for Active; 'I' for Inactive)
REMARK    1  A    between atoms: C6_6  and  C7_7 
REMARK    2  A    between atoms: C6_6  and  O10_10 
REMARK    3  A    between atoms: C7_7  and  C8_8 
REMARK    4  A    between atoms: C7_7  and  O9_9 
ROOT
HETATM    1  C7  UNL     1     -33.612   6.084   4.542  1.00 20.00     0.154 C 
ENDROOT
BRANCH   1   2
HETATM    2  C6  UNL     1     -33.605   6.600   3.087  1.00 20.00     0.146 C 
HETATM    3  C1  UNL     1     -34.855   7.405   2.740  1.00 20.00     0.042 C 
BRANCH   2   4
HETATM    4  O10 UNL     1     -32.475   7.427   2.838  1.00 20.00    -0.388 OA
HETATM    5  C5  UNL     1     -32.147   7.457   1.456  1.00 20.00     0.202 C 
ENDBRANCH   2   4
ENDBRANCH   1   2
BRANCH   1   6
HETATM    6  C8  UNL     1     -34.484   4.821   4.847  1.00 20.00    -0.023 C 
HETATM    7  C2  UNL     1     -34.373   4.501   6.356  1.00 20.00     0.017 C 
HETATM    8  C3  UNL     1     -35.966   5.087   4.526  1.00 20.00     0.017 C 
HETATM    9  C4  UNL     1     -34.025   3.570   4.075  1.00 20.00     0.017 C 
ENDBRANCH   1   6
BRANCH   1  10
HETATM   10  O9  UNL     1     -34.036   7.136   5.415  1.00 20.00    -0.392 OA
HETATM   11  H28 UNL     1     -33.397   7.855   5.302  1.00 20.00     0.210 HD
ENDBRANCH   1  10
TORSDOF 4
