REMARK  4 active torsions:
REMARK  status: ('A' for Active; 'I' for Inactive)
REMARK    1  A    between atoms: C1_1  and  C9_9 
REMARK    2  A    between atoms: C8_8  and  C10_10 
REMARK    3  A    between atoms: C9_9  and  C11_11 
REMARK    4  A    between atoms: C10_10  and  C11_11 
ROOT
HETATM    1  C2  UNL     1     -34.519   5.029   6.258  1.00 20.00     0.005 C 
HETATM    2  C3  UNL     1     -34.343   4.057   5.082  1.00 20.00     0.005 C 
HETATM    3  C4  UNL     1     -35.674   5.883   4.361  1.00 20.00     0.009 C 
HETATM    4  C5  UNL     1     -33.593   6.910   4.880  1.00 20.00     0.009 C 
HETATM    5  C6  UNL     1     -34.858   6.358   5.561  1.00 20.00    -0.014 C 
HETATM    6  C7  UNL     1     -34.565   4.959   3.853  1.00 20.00    -0.010 C 
HETATM    7  C8  UNL     1     -33.354   5.913   3.726  1.00 20.00    -0.010 C 
ENDROOT
BRANCH   7   8
HETATM    8  C10 UNL     1     -33.286   6.605   2.369  1.00 20.00     0.005 C 
BRANCH   8   9
HETATM    9  C11 UNL     1     -31.922   7.261   2.149  1.00 20.00     0.007 C 
BRANCH   9  10
HETATM   10  C9  UNL     1     -31.827   7.962   0.797  1.00 20.00     0.069 C 
BRANCH  10  11
HETATM   11  C1  UNL     1     -32.847   9.060   0.602  1.00 20.00     0.231 C 
HETATM   12  O12 UNL     1     -33.651   9.116  -0.322  1.00 20.00    -0.307 OA
ENDBRANCH  10  11
ENDBRANCH   9  10
ENDBRANCH   8   9
ENDBRANCH   7   8
TORSDOF 4
