REMARK  3 active torsions:
REMARK  status: ('A' for Active; 'I' for Inactive)
REMARK    1  A    between atoms: C7_7  and  C9_9 
REMARK    2  A    between atoms: C9_9  and  N10_10 
REMARK    3  A    between atoms: N10_10  and  O11_11 
ROOT
HETATM    1  C1  UNL     1     -34.350   4.420   5.509  1.00 20.00     0.005 C 
HETATM    2  C2  UNL     1     -34.431   5.920   5.830  1.00 20.00     0.005 C 
HETATM    3  C3  UNL     1     -35.722   5.493   3.886  1.00 20.00     0.010 C 
HETATM    4  C4  UNL     1     -33.515   4.929   3.199  1.00 20.00     0.011 C 
HETATM    5  C5  UNL     1     -34.697   4.368   4.011  1.00 20.00    -0.014 C 
HETATM    6  C6  UNL     1     -34.775   6.547   4.466  1.00 20.00    -0.009 C 
HETATM    7  C7  UNL     1     -33.531   6.432   3.552  1.00 20.00     0.005 C 
ENDROOT
BRANCH   7   8
HETATM    8  C9  UNL     1     -33.624   7.315   2.312  1.00 20.00     0.122 C 
BRANCH   8   9
HETATM    9  N10 UNL     1     -32.338   7.446   1.713  1.00 20.00    -0.206 NA
HETATM   10  H28 UNL     1     -31.963   6.529   1.430  1.00 20.00     0.153 HD
BRANCH   9  11
HETATM   11  O11 UNL     1     -32.574   8.036   0.393  1.00 20.00    -0.311 OA
HETATM   12  C8  UNL     1     -32.651   9.447   0.543  1.00 20.00     0.229 C 
ENDBRANCH   9  11
ENDBRANCH   8   9
ENDBRANCH   7   8
TORSDOF 3
