REMARK  3 active torsions:
REMARK  status: ('A' for Active; 'I' for Inactive)
REMARK    1  A    between atoms: C1_1  and  C10_10 
REMARK    2  A    between atoms: C8_8  and  C11_11 
REMARK    3  A    between atoms: C10_10  and  C11_11 
ROOT
HETATM    1  C2  UNL     1     -34.204   4.040   5.341  1.00 20.00     0.005 C 
HETATM    2  C3  UNL     1     -34.156   5.469   5.901  1.00 20.00     0.005 C 
HETATM    3  C4  UNL     1     -35.677   5.422   4.082  1.00 20.00     0.009 C 
HETATM    4  C5  UNL     1     -33.599   4.882   3.057  1.00 20.00     0.009 C 
HETATM    5  C6  UNL     1     -34.717   4.248   3.906  1.00 20.00    -0.014 C 
HETATM    6  C7  UNL     1     -34.609   6.325   4.703  1.00 20.00    -0.010 C 
HETATM    7  C8  UNL     1     -33.484   6.306   3.641  1.00 20.00    -0.010 C 
ENDROOT
BRANCH   7   8
HETATM    8  C11 UNL     1     -33.658   7.383   2.576  1.00 20.00     0.012 C 
BRANCH   8   9
HETATM    9  C10 UNL     1     -32.628   7.234   1.462  1.00 20.00     0.078 C 
BRANCH   9  10
HETATM   10  C1  UNL     1     -32.797   8.280   0.374  1.00 20.00     0.123 C 
HETATM   11  C9  UNL     1     -33.901   9.284   0.585  1.00 20.00     0.091 C 
HETATM   12  O12 UNL     1     -32.086   8.322  -0.628  1.00 20.00    -0.298 OA
ENDBRANCH   9  10
ENDBRANCH   8   9
ENDBRANCH   7   8
TORSDOF 3
