REMARK  3 active torsions:
REMARK  status: ('A' for Active; 'I' for Inactive)
REMARK    1  A    between atoms: C3_3  and  C5_5 
REMARK    2  A    between atoms: C6_6  and  C8_8 
REMARK    3  A    between atoms: C8_8  and  C9_9 
ROOT
HETATM    1  C1  UNL     1     -33.843   6.998   4.540  1.00 20.00     0.026 A 
HETATM    2  C2  UNL     1     -33.609   5.285   2.985  1.00 20.00     0.061 A 
HETATM    3  C3  UNL     1     -33.444   6.632   3.221  1.00 20.00    -0.029 A 
HETATM    4  C4  UNL     1     -34.298   5.916   5.261  1.00 20.00    -0.021 A 
HETATM    5  C7  UNL     1     -34.797   5.881   6.653  1.00 20.00     0.056 C 
HETATM    6  S10 UNL     1     -34.243   4.467   4.350  1.00 20.00    -0.106 SA
ENDROOT
BRANCH   3   7
HETATM    7  C5  UNL     1     -32.916   7.562   2.209  1.00 20.00     0.008 C 
HETATM    8  C6  UNL     1     -32.895   7.333   0.887  1.00 20.00    -0.025 C 
BRANCH   8   9
HETATM    9  C8  UNL     1     -32.337   8.308  -0.112  1.00 20.00     0.042 C 
BRANCH   9  10
HETATM   10  C9  UNL     1     -32.566   9.761   0.293  1.00 20.00     0.118 C 
HETATM   11 CL11 UNL     1     -34.299  10.126   0.479  1.00 20.00    -0.130 Cl
ENDBRANCH   9  10
ENDBRANCH   8   9
ENDBRANCH   3   7
TORSDOF 3
