REMARK  3 active torsions:
REMARK  status: ('A' for Active; 'I' for Inactive)
REMARK    1  A    between atoms: C7_7  and  C9_9 
REMARK    2  A    between atoms: C8_8  and  O11_11 
REMARK    3  A    between atoms: C9_9  and  O11_11 
ROOT
HETATM    1  C1  UNL     1     -34.239   5.434   5.260  1.00 20.00     0.129 C 
HETATM    2  C2  UNL     1     -34.284   4.392   4.173  1.00 20.00     0.081 C 
HETATM    3  C3  UNL     1     -33.567   6.705   4.807  1.00 20.00     0.110 C 
HETATM    4  C4  UNL     1     -33.292   4.956   3.168  1.00 20.00     0.040 C 
HETATM    5  C8  UNL     1     -33.419   6.469   3.308  1.00 20.00     0.128 C 
HETATM    6  O10 UNL     1     -34.704   5.271   6.381  1.00 20.00    -0.298 OA
ENDROOT
BRANCH   5   7
HETATM    7  O11 UNL     1     -32.264   7.121   2.813  1.00 20.00    -0.385 OA
BRANCH   7   8
HETATM    8  C9  UNL     1     -32.337   7.311   1.408  1.00 20.00     0.172 C 
BRANCH   8   9
HETATM    9  C7  UNL     1     -33.204   8.517   1.118  1.00 20.00     0.009 A 
HETATM   10  C5  UNL     1     -32.829   9.868   1.661  1.00 20.00     0.007 A 
HETATM   11  C6  UNL     1     -32.717   9.593   0.187  1.00 20.00     0.007 A 
ENDBRANCH   8   9
ENDBRANCH   7   8
ENDBRANCH   5   7
TORSDOF 3
