REMARK  3 active torsions:
REMARK  status: ('A' for Active; 'I' for Inactive)
REMARK    1  A    between atoms: C3_3  and  C9_9 
REMARK    2  A    between atoms: C7_7  and  O11_11 
REMARK    3  A    between atoms: C9_9  and  O11_11 
ROOT
HETATM    1  C1  UNL     1     -34.929   5.609   5.643  1.00 20.00     0.129 C 
HETATM    2  C4  UNL     1     -33.908   6.475   6.332  1.00 20.00     0.081 C 
HETATM    3  C5  UNL     1     -35.147   6.011   4.204  1.00 20.00     0.110 C 
HETATM    4  C6  UNL     1     -33.750   7.623   5.340  1.00 20.00     0.040 C 
HETATM    5  C7  UNL     1     -34.002   6.994   3.975  1.00 20.00     0.129 C 
HETATM    6  O10 UNL     1     -35.515   4.681   6.187  1.00 20.00    -0.298 OA
ENDROOT
BRANCH   5   7
HETATM    7  O11 UNL     1     -32.834   6.296   3.557  1.00 20.00    -0.382 OA
BRANCH   7   8
HETATM    8  C9  UNL     1     -31.916   7.164   2.908  1.00 20.00     0.195 C 
BRANCH   8   9
HETATM    9  C3  UNL     1     -32.364   7.369   1.497  1.00 20.00    -0.005 C 
HETATM   10  C2  UNL     1     -32.698   8.563   0.988  1.00 20.00    -0.033 C 
HETATM   11  C8  UNL     1     -33.151   8.770  -0.419  1.00 20.00     0.036 C 
ENDBRANCH   8   9
ENDBRANCH   7   8
ENDBRANCH   5   7
TORSDOF 3
