REMARK  4 active torsions:
REMARK  status: ('A' for Active; 'I' for Inactive)
REMARK    1  A    between atoms: C2_2  and  C7_7 
REMARK    2  A    between atoms: C2_2  and  O11_11 
REMARK    3  A    between atoms: C6_6  and  C7_7 
REMARK    4  A    between atoms: C6_6  and  C8_8 
ROOT
HETATM    1  C1  UNL     1     -32.507   7.634   4.294  1.00 20.00     0.074 C 
HETATM    2  C7  UNL     1     -33.619   7.144   3.459  1.00 20.00     0.192 C 
HETATM    3  N9  UNL     1     -31.633   8.023   4.952  1.00 20.00    -0.196 NA
ENDROOT
BRANCH   2   4
HETATM    4  C2  UNL     1     -34.204   5.872   4.056  1.00 20.00     0.276 C 
HETATM    5  O10 UNL     1     -34.290   4.797   3.476  1.00 20.00    -0.264 OA
BRANCH   4   6
HETATM    6  O11 UNL     1     -34.610   6.119   5.338  1.00 20.00    -0.325 OA
HETATM    7  C5  UNL     1     -35.179   5.003   6.030  1.00 20.00     0.213 C 
ENDBRANCH   4   6
ENDBRANCH   2   4
BRANCH   2   8
HETATM    8  C6  UNL     1     -33.155   6.857   2.020  1.00 20.00     0.033 C 
BRANCH   8   9
HETATM    9  C8  UNL     1     -32.521   8.054   1.280  1.00 20.00    -0.021 C 
HETATM   10  C3  UNL     1     -33.535   9.198   1.187  1.00 20.00     0.009 C 
HETATM   11  C4  UNL     1     -32.035   7.683  -0.121  1.00 20.00     0.009 C 
ENDBRANCH   8   9
ENDBRANCH   2   8
TORSDOF 4
