REMARK  2 active torsions:
REMARK  status: ('A' for Active; 'I' for Inactive)
REMARK    1  A    between atoms: C2_2  and  C8_8 
REMARK    2  A    between atoms: C2_2  and  C9_9 
ROOT
HETATM    1  C1  UNL     1     -33.065   7.992   0.440  1.00 20.00     0.127 C 
HETATM    2  C3  UNL     1     -32.985   8.897   1.639  1.00 20.00     0.079 C 
HETATM    3  C4  UNL     1     -33.074   6.534   0.820  1.00 20.00     0.090 C 
HETATM    4  C5  UNL     1     -33.341   7.944   2.770  1.00 20.00     0.020 C 
HETATM    5  C8  UNL     1     -32.806   6.585   2.323  1.00 20.00     0.063 C 
HETATM    6  O10 UNL     1     -33.101   8.394  -0.716  1.00 20.00    -0.298 OA
ENDROOT
BRANCH   5   7
HETATM    7  C2  UNL     1     -33.511   5.472   3.029  1.00 20.00     0.135 C 
HETATM    8  O11 UNL     1     -33.258   4.293   2.789  1.00 20.00    -0.297 OA
BRANCH   7   9
HETATM    9  C9  UNL     1     -34.546   5.865   4.048  1.00 20.00     0.056 A 
HETATM   10  C6  UNL     1     -34.851   4.908   5.143  1.00 20.00     0.013 A 
HETATM   11  C7  UNL     1     -34.089   6.167   5.430  1.00 20.00     0.013 A 
ENDBRANCH   7   9
ENDBRANCH   5   7
TORSDOF 2
