REMARK  0 active torsions:
REMARK  status: ('A' for Active; 'I' for Inactive)
ROOT
HETATM    1  C1  UNL     1     -34.774   5.852   2.749  1.00 20.00     0.009 A 
HETATM    2  C2  UNL     1     -33.860   6.358   1.822  1.00 20.00     0.019 A 
HETATM    3  C3  UNL     1     -32.466   7.240   3.610  1.00 20.00     0.028 A 
HETATM    4  C4  UNL     1     -34.514   6.039   4.096  1.00 20.00    -0.050 A 
HETATM    5  C5  UNL     1     -33.375   6.732   4.524  1.00 20.00    -0.032 A 
HETATM    6  C6  UNL     1     -32.713   7.046   2.249  1.00 20.00     0.011 A 
HETATM    7  C7  UNL     1     -35.354   5.614   5.261  1.00 20.00     0.045 C 
HETATM    8  C8  UNL     1     -33.339   6.835   6.019  1.00 20.00     0.119 C 
HETATM    9  C9  UNL     1     -34.352   5.739   6.434  1.00 20.00     0.009 C 
HETATM   10  C10 UNL     1     -33.639   4.403   6.688  1.00 20.00     0.012 C 
HETATM   11 CL11 UNL     1     -33.902   8.450   6.515  1.00 20.00    -0.119 Cl
HETATM   12 BR12 UNL     1     -31.497   7.722   0.969  1.00 20.00    -0.051 Br
ENDROOT
TORSDOF 0
