REMARK  1 active torsions:
REMARK  status: ('A' for Active; 'I' for Inactive)
REMARK    1  A    between atoms: C2_2  and  C3_3 
ROOT
HETATM    1  C1  UNL     1     -33.505   7.183   3.810  1.00 20.00    -0.034 C 
HETATM    2  C2  UNL     1     -33.906   6.167   4.588  1.00 20.00     0.194 C 
HETATM    3  C4  UNL     1     -32.369   8.084   4.198  1.00 20.00     0.038 C 
HETATM    4  C5  UNL     1     -34.138   7.452   2.466  1.00 20.00     0.042 C 
HETATM    5  C6  UNL     1     -31.257   8.099   3.142  1.00 20.00     0.009 C 
HETATM    6  C7  UNL     1     -33.171   8.084   1.434  1.00 20.00    -0.011 C 
HETATM    7  C8  UNL     1     -31.713   7.667   1.734  1.00 20.00    -0.014 C 
HETATM    8  C9  UNL     1     -33.369   9.603   1.348  1.00 20.00     0.010 C 
HETATM    9  C10 UNL     1     -30.718   8.143   0.675  1.00 20.00     0.010 C 
HETATM   10  F13 UNL     1     -33.257   5.964   5.754  1.00 20.00    -0.199 F 
ENDROOT
BRANCH   2  11
HETATM   11  C3  UNL     1     -35.064   5.240   4.205  1.00 20.00     0.239 C 
HETATM   12  O11 UNL     1     -36.171   5.834   4.050  1.00 20.00    -0.642 OA
HETATM   13  O12 UNL     1     -34.797   4.011   4.087  1.00 20.00    -0.642 OA
ENDBRANCH   2  11
TORSDOF 1
