REMARK  0 active torsions:
REMARK  status: ('A' for Active; 'I' for Inactive)
ROOT
HETATM    1  C1  UNL     1     -32.568   6.447   1.114  1.00 20.00     0.009 A 
HETATM    2  C2  UNL     1     -32.505   7.754   0.629  1.00 20.00     0.024 A 
HETATM    3  C3  UNL     1     -33.627   8.591   2.619  1.00 20.00     0.033 A 
HETATM    4  C4  UNL     1     -33.147   6.232   2.354  1.00 20.00    -0.050 A 
HETATM    5  C5  UNL     1     -33.667   7.293   3.108  1.00 20.00    -0.031 A 
HETATM    6  C6  UNL     1     -33.032   8.818   1.375  1.00 20.00     0.034 A 
HETATM    7  C7  UNL     1     -33.366   4.921   3.044  1.00 20.00     0.045 C 
HETATM    8  C8  UNL     1     -34.286   6.780   4.373  1.00 20.00     0.119 C 
HETATM    9  C9  UNL     1     -33.628   5.384   4.492  1.00 20.00     0.009 C 
HETATM   10  C10 UNL     1     -34.477   4.390   5.274  1.00 20.00     0.012 C 
HETATM   11 CL11 UNL     1     -32.939  10.422   0.755  1.00 20.00    -0.084 Cl
HETATM   12 CL12 UNL     1     -33.934   7.782   5.789  1.00 20.00    -0.119 Cl
ENDROOT
TORSDOF 0
