REMARK  0 active torsions:
REMARK  status: ('A' for Active; 'I' for Inactive)
ROOT
HETATM    1  C1  UNL     1     -32.481   8.587   4.038  1.00 20.00     0.009 A 
HETATM    2  C2  UNL     1     -32.310   8.930   2.696  1.00 20.00     0.024 A 
HETATM    3  C3  UNL     1     -33.207   6.783   1.985  1.00 20.00     0.032 A 
HETATM    4  C4  UNL     1     -33.004   7.340   4.336  1.00 20.00    -0.050 A 
HETATM    5  C5  UNL     1     -33.373   6.448   3.319  1.00 20.00    -0.035 A 
HETATM    6  C6  UNL     1     -32.669   8.034   1.676  1.00 20.00     0.034 A 
HETATM    7  C7  UNL     1     -33.293   6.763   5.688  1.00 20.00     0.045 C 
HETATM    8  C8  UNL     1     -33.948   5.189   3.895  1.00 20.00     0.095 C 
HETATM    9  C9  UNL     1     -33.418   5.261   5.346  1.00 20.00     0.005 C 
HETATM   10  C10 UNL     1     -34.178   4.473   6.402  1.00 20.00     0.011 C 
HETATM   11 CL11 UNL     1     -32.449   8.486   0.029  1.00 20.00    -0.084 Cl
HETATM   12 BR12 UNL     1     -35.884   5.287   3.755  1.00 20.00    -0.086 Br
ENDROOT
TORSDOF 0
