REMARK  0 active torsions:
REMARK  status: ('A' for Active; 'I' for Inactive)
ROOT
HETATM    1  C1  UNL     1     -32.871   5.777   1.605  1.00 20.00     0.009 A 
HETATM    2  C2  UNL     1     -32.690   7.033   1.024  1.00 20.00     0.024 A 
HETATM    3  C3  UNL     1     -33.961   8.093   2.807  1.00 20.00     0.033 A 
HETATM    4  C4  UNL     1     -33.605   5.695   2.776  1.00 20.00    -0.050 A 
HETATM    5  C5  UNL     1     -34.141   6.842   3.376  1.00 20.00    -0.031 A 
HETATM    6  C6  UNL     1     -33.232   8.183   1.619  1.00 20.00     0.034 A 
HETATM    7  C7  UNL     1     -33.910   4.473   3.586  1.00 20.00     0.045 C 
HETATM    8  C8  UNL     1     -34.852   6.499   4.652  1.00 20.00     0.119 C 
HETATM    9  C9  UNL     1     -35.090   4.979   4.446  1.00 20.00     0.009 C 
HETATM   10  C10 UNL     1     -35.296   4.153   5.707  1.00 20.00     0.012 C 
HETATM   11 CL11 UNL     1     -32.988   9.720   0.882  1.00 20.00    -0.084 Cl
HETATM   12 CL12 UNL     1     -33.800   6.890   6.032  1.00 20.00    -0.119 Cl
ENDROOT
TORSDOF 0
