REMARK  2 active torsions:
REMARK  status: ('A' for Active; 'I' for Inactive)
REMARK    1  A    between atoms: C6_6  and  N11_11 
REMARK    2  A    between atoms: C10_10  and  N11_11 
ROOT
HETATM    1  C1  UNL     1     -33.248   8.383  -0.565  1.00 20.00     0.013 C 
HETATM    2  C2  UNL     1     -32.987   8.017   0.549  1.00 20.00    -0.087 C 
HETATM    3  C10 UNL     1     -32.664   7.571   1.906  1.00 20.00     0.362 C 
ENDROOT
BRANCH   3   4
HETATM    4  N11 UNL     1     -33.837   6.996   2.551  1.00 20.00     0.099 N 
HETATM    5  H28 UNL     1     -34.160   6.196   2.007  1.00 20.00     0.317 HD
BRANCH   4   6
HETATM    6  C6  UNL     1     -33.528   6.562   3.905  1.00 20.00     0.229 C 
HETATM    7  C4  UNL     1     -33.513   7.722   4.901  1.00 20.00     0.036 C 
HETATM    8  C3  UNL     1     -33.739   7.074   6.269  1.00 20.00     0.003 C 
HETATM    9  C5  UNL     1     -34.105   5.610   6.003  1.00 20.00     0.011 C 
HETATM   10  C7  UNL     1     -34.520   5.550   4.521  1.00 20.00    -0.017 C 
HETATM   11  C8  UNL     1     -35.996   5.964   4.364  1.00 20.00     0.017 C 
HETATM   12  C9  UNL     1     -34.337   4.141   3.948  1.00 20.00     0.017 C 
ENDBRANCH   4   6
ENDBRANCH   3   4
TORSDOF 2
