REMARK  2 active torsions:
REMARK  status: ('A' for Active; 'I' for Inactive)
REMARK    1  A    between atoms: C3_3  and  C9_9 
REMARK    2  A    between atoms: C7_7  and  C9_9 
ROOT
HETATM    1  C4  UNL     1     -33.693   6.233   4.237  1.00 20.00     0.006 C 
HETATM    2  C5  UNL     1     -34.321   5.096   5.028  1.00 20.00     0.020 C 
HETATM    3  C6  UNL     1     -33.306   4.104   3.085  1.00 20.00     0.025 C 
HETATM    4  C7  UNL     1     -33.424   5.623   2.856  1.00 20.00    -0.007 C 
HETATM    5  C8  UNL     1     -33.483   3.906   4.589  1.00 20.00     0.082 C 
HETATM    6 CL12 UNL     1     -34.248   2.360   4.986  1.00 20.00    -0.125 Cl
ENDROOT
BRANCH   4   7
HETATM    7  C9  UNL     1     -32.196   6.221   2.185  1.00 20.00     0.071 C 
BRANCH   7   8
HETATM    8  C3  UNL     1     -32.496   7.556   1.556  1.00 20.00     0.074 A 
HETATM    9  N10 UNL     1     -32.324   7.834   0.282  1.00 20.00    -0.258 NA
HETATM   10  C1  UNL     1     -32.699   9.144   0.056  1.00 20.00     0.124 A 
HETATM   11  C2  UNL     1     -33.149   9.840   1.158  1.00 20.00     0.070 A 
HETATM   12  S11 UNL     1     -33.107   8.823   2.539  1.00 20.00    -0.085 SA
ENDBRANCH   7   8
ENDBRANCH   4   7
TORSDOF 2
