REMARK  2 active torsions:
REMARK  status: ('A' for Active; 'I' for Inactive)
REMARK    1  A    between atoms: C5_5  and  C9_9 
REMARK    2  A    between atoms: C5_5  and  O10_10 
ROOT
HETATM    1  C1  UNL     1     -33.789   4.156   3.232  1.00 20.00     0.004 C 
HETATM    2  C2  UNL     1     -33.763   4.895   4.571  1.00 20.00     0.012 C 
HETATM    3  C3  UNL     1     -33.671   5.222   2.137  1.00 20.00     0.038 C 
HETATM    4  C4  UNL     1     -34.084   6.366   4.238  1.00 20.00    -0.017 C 
HETATM    5  C5  UNL     1     -33.362   6.534   2.873  1.00 20.00     0.064 C 
HETATM    6  C6  UNL     1     -33.542   7.295   5.334  1.00 20.00     0.018 C 
HETATM    7  C7  UNL     1     -35.611   6.560   4.148  1.00 20.00     0.018 C 
ENDROOT
BRANCH   5   8
HETATM    8  C9  UNL     1     -33.756   7.764   2.062  1.00 20.00     0.034 C 
HETATM    9  C8  UNL     1     -33.030   7.822   0.757  1.00 20.00     0.008 C 
ENDBRANCH   5   8
BRANCH   5  10
HETATM   10  O10 UNL     1     -31.946   6.590   3.089  1.00 20.00    -0.389 OA
HETATM   11  H28 UNL     1     -31.539   6.565   2.211  1.00 20.00     0.210 HD
ENDBRANCH   5  10
TORSDOF 2
