REMARK  2 active torsions:
REMARK  status: ('A' for Active; 'I' for Inactive)
REMARK    1  A    between atoms: C5_5  and  C10_10 
REMARK    2  A    between atoms: C5_5  and  O11_11 
ROOT
HETATM    1  C1  UNL     1     -31.536   7.623   2.754  1.00 20.00     0.004 C 
HETATM    2  C2  UNL     1     -32.428   7.149   1.605  1.00 20.00     0.012 C 
HETATM    3  C3  UNL     1     -32.280   7.305   4.056  1.00 20.00     0.039 C 
HETATM    4  C4  UNL     1     -33.444   6.179   2.240  1.00 20.00    -0.016 C 
HETATM    5  C5  UNL     1     -33.678   6.832   3.632  1.00 20.00     0.068 C 
HETATM    6  C6  UNL     1     -32.824   4.770   2.329  1.00 20.00     0.018 C 
HETATM    7  C7  UNL     1     -34.716   6.097   1.385  1.00 20.00     0.018 C 
ENDROOT
BRANCH   5   8
HETATM    8  C10 UNL     1     -34.321   5.933   4.682  1.00 20.00     0.012 C 
HETATM    9  C8  UNL     1     -33.806   6.282   6.077  1.00 20.00     0.012 C 
HETATM   10  C9  UNL     1     -35.844   6.047   4.629  1.00 20.00     0.012 C 
ENDBRANCH   5   8
BRANCH   5  11
HETATM   11  O11 UNL     1     -34.526   7.982   3.518  1.00 20.00    -0.389 OA
HETATM   12  H31 UNL     1     -34.121   8.548   2.846  1.00 20.00     0.210 HD
ENDBRANCH   5  11
TORSDOF 2
