REMARK  0 active torsions:
REMARK  status: ('A' for Active; 'I' for Inactive)
ROOT
HETATM    1  C1  UNL     1     -33.707   6.568   4.950  1.00 20.00     0.086 C 
HETATM    2  C2  UNL     1     -33.356   8.438   2.528  1.00 20.00     0.003 C 
HETATM    3  C3  UNL     1     -32.357   7.634   1.706  1.00 20.00     0.001 C 
HETATM    4  C4  UNL     1     -34.591   7.617   2.906  1.00 20.00     0.042 C 
HETATM    5  C5  UNL     1     -31.986   6.314   2.382  1.00 20.00     0.012 C 
HETATM    6  C6  UNL     1     -34.233   6.283   3.595  1.00 20.00     0.132 C 
HETATM    7  C7  UNL     1     -33.218   5.436   2.741  1.00 20.00    -0.013 C 
HETATM    8  C8  UNL     1     -32.707   4.187   3.501  1.00 20.00     0.018 C 
HETATM    9  C9  UNL     1     -33.856   4.920   1.425  1.00 20.00     0.018 C 
HETATM   10  N10 UNL     1     -33.295   6.791   6.012  1.00 20.00    -0.195 NA
HETATM   11 CL11 UNL     1     -35.771   5.385   3.898  1.00 20.00    -0.102 Cl
ENDROOT
TORSDOF 0
