REMARK  1 active torsions:
REMARK  status: ('A' for Active; 'I' for Inactive)
REMARK    1  A    between atoms: C2_2  and  C5_5 
ROOT
HETATM    1  C1  UNL     1     -33.470   5.998   2.699  1.00 20.00     0.075 A 
HETATM    2  C2  UNL     1     -33.612   6.195   4.016  1.00 20.00     0.039 A 
HETATM    3  C3  UNL     1     -32.443   6.864   2.105  1.00 20.00     0.209 A 
HETATM    4  C4  UNL     1     -32.739   7.224   4.661  1.00 20.00     0.126 A 
HETATM    5  O6  UNL     1     -32.137   6.866   0.924  1.00 20.00    -0.281 OA
HETATM    6  S10 UNL     1     -31.717   7.897   3.320  1.00 20.00    -0.084 SA
ENDROOT
BRANCH   2   7
HETATM    7  C5  UNL     1     -34.585   5.451   4.869  1.00 20.00     0.414 C 
HETATM    8  F7  UNL     1     -34.512   5.854   6.156  1.00 20.00    -0.166 F 
HETATM    9  F8  UNL     1     -35.853   5.648   4.450  1.00 20.00    -0.166 F 
HETATM   10  F9  UNL     1     -34.347   4.122   4.842  1.00 20.00    -0.166 F 
ENDBRANCH   2   7
TORSDOF 1
