REMARK  1 active torsions:
REMARK  status: ('A' for Active; 'I' for Inactive)
REMARK    1  A    between atoms: C1_1  and  C4_4 
ROOT
HETATM    1  C1  UNL     1     -32.798   6.732   2.264  1.00 20.00    -0.079 C 
HETATM    2  C2  UNL     1     -32.725   7.766   1.658  1.00 20.00    -0.106 C 
HETATM    3  C7  UNL     1     -32.636   9.025   0.919  1.00 20.00     0.112 C 
ENDROOT
BRANCH   1   4
HETATM    4  C4  UNL     1     -32.883   5.507   2.981  1.00 20.00     0.070 C 
HETATM    5  C3  UNL     1     -33.920   5.216   3.764  1.00 20.00    -0.017 C 
HETATM    6  C5  UNL     1     -34.299   4.046   4.628  1.00 20.00     0.306 C 
HETATM    7  C6  UNL     1     -35.195   5.922   4.137  1.00 20.00     0.306 C 
HETATM    8  N8  UNL     1     -35.323   4.926   5.212  1.00 20.00     0.091 N 
HETATM    9  H17 UNL     1     -36.247   4.508   5.302  1.00 20.00     0.316 HD
ENDBRANCH   1   4
TORSDOF 1
