REMARK  1 active torsions:
REMARK  status: ('A' for Active; 'I' for Inactive)
REMARK    1  A    between atoms: C4_4  and  C9_9 
ROOT
HETATM    1  C1  UNL     1     -34.937   5.682   5.930  1.00 20.00     0.001 C 
HETATM    2  C2  UNL     1     -33.891   6.718   5.515  1.00 20.00     0.007 C 
HETATM    3  C3  UNL     1     -35.176   4.799   4.706  1.00 20.00     0.009 C 
HETATM    4  C4  UNL     1     -33.623   6.469   4.026  1.00 20.00     0.011 C 
HETATM    5  C5  UNL     1     -33.918   4.963   3.834  1.00 20.00    -0.043 C 
HETATM    6  C6  UNL     1     -32.791   4.045   4.338  1.00 20.00     0.015 C 
HETATM    7  C7  UNL     1     -34.220   4.621   2.371  1.00 20.00     0.015 C 
ENDROOT
BRANCH   4   8
HETATM    8  C9  UNL     1     -32.242   6.945   3.595  1.00 20.00     0.083 C 
HETATM    9  C8  UNL     1     -31.892   8.286   4.221  1.00 20.00     0.027 C 
HETATM   10 CL10 UNL     1     -32.186   7.081   1.815  1.00 20.00    -0.125 Cl
ENDBRANCH   4   8
TORSDOF 1
