REMARK  2 active torsions:
REMARK  status: ('A' for Active; 'I' for Inactive)
REMARK    1  A    between atoms: C6_6  and  N11_11 
REMARK    2  A    between atoms: C10_10  and  N11_11 
ROOT
HETATM    1  C1  UNL     1     -33.012   8.845   0.184  1.00 20.00     0.013 C 
HETATM    2  C2  UNL     1     -32.782   7.971   0.975  1.00 20.00    -0.087 C 
HETATM    3  C10 UNL     1     -32.497   6.904   1.937  1.00 20.00     0.362 C 
ENDROOT
BRANCH   3   4
HETATM    4  N11 UNL     1     -33.412   6.974   3.070  1.00 20.00     0.099 N 
HETATM    5  H28 UNL     1     -34.369   6.872   2.733  1.00 20.00     0.317 HD
BRANCH   4   6
HETATM    6  C6  UNL     1     -33.125   5.918   4.044  1.00 20.00     0.229 C 
HETATM    7  C4  UNL     1     -33.760   4.614   3.546  1.00 20.00     0.036 C 
HETATM    8  C3  UNL     1     -35.201   4.629   4.062  1.00 20.00     0.003 C 
HETATM    9  C5  UNL     1     -35.279   5.741   5.113  1.00 20.00     0.011 C 
HETATM   10  C7  UNL     1     -33.822   6.139   5.412  1.00 20.00    -0.017 C 
HETATM   11  C8  UNL     1     -33.225   5.203   6.485  1.00 20.00     0.017 C 
HETATM   12  C9  UNL     1     -33.727   7.577   5.939  1.00 20.00     0.017 C 
ENDBRANCH   4   6
ENDBRANCH   3   4
TORSDOF 2
