REMARK  0 active torsions:
REMARK  status: ('A' for Active; 'I' for Inactive)
ROOT
HETATM    1  C1  UNL     1     -34.595   4.314   3.702  1.00 20.00     0.035 C 
HETATM    2  C2  UNL     1     -33.261   4.849   3.151  1.00 20.00     0.014 C 
HETATM    3  C3  UNL     1     -35.071   5.377   4.642  1.00 20.00     0.152 A 
HETATM    4  C4  UNL     1     -34.348   6.641   4.344  1.00 20.00     0.158 A 
HETATM    5  C5  UNL     1     -33.396   6.397   3.193  1.00 20.00    -0.019 C 
HETATM    6  C6  UNL     1     -34.011   6.918   1.887  1.00 20.00     0.017 C 
HETATM    7  C7  UNL     1     -32.045   7.069   3.437  1.00 20.00     0.017 C 
HETATM    8  O8  UNL     1     -34.095   5.901   5.548  1.00 20.00    -0.375 OA
ENDROOT
TORSDOF 0
