REMARK  1 active torsions:
REMARK  status: ('A' for Active; 'I' for Inactive)
REMARK    1  A    between atoms: C4_4  and  C9_9 
ROOT
HETATM    1  C1  UNL     1     -34.540   3.991   3.118  1.00 20.00     0.001 C 
HETATM    2  C2  UNL     1     -35.305   5.152   3.755  1.00 20.00     0.007 C 
HETATM    3  C3  UNL     1     -33.140   4.512   2.795  1.00 20.00     0.009 C 
HETATM    4  C4  UNL     1     -34.282   6.278   3.970  1.00 20.00     0.011 C 
HETATM    5  C5  UNL     1     -33.245   6.045   2.840  1.00 20.00    -0.043 C 
HETATM    6  C6  UNL     1     -31.877   6.688   3.096  1.00 20.00     0.015 C 
HETATM    7  C7  UNL     1     -33.782   6.581   1.497  1.00 20.00     0.015 C 
ENDROOT
BRANCH   4   8
HETATM    8  C9  UNL     1     -33.717   6.213   5.392  1.00 20.00     0.083 C 
HETATM    9  C8  UNL     1     -34.686   6.800   6.407  1.00 20.00     0.027 C 
HETATM   10 CL10 UNL     1     -33.363   4.515   5.818  1.00 20.00    -0.125 Cl
ENDBRANCH   4   8
TORSDOF 1
