REMARK  2 active torsions:
REMARK  status: ('A' for Active; 'I' for Inactive)
REMARK    1  A    between atoms: C1_1  and  C5_5 
REMARK    2  A    between atoms: C1_1  and  C10_10 
ROOT
HETATM    1  C2  UNL     1     -33.253   7.084   6.368  1.00 20.00     0.002 C 
HETATM    2  C3  UNL     1     -32.725   7.360   4.960  1.00 20.00     0.013 C 
HETATM    3  C4  UNL     1     -34.602   6.399   6.179  1.00 20.00     0.010 C 
HETATM    4  C5  UNL     1     -33.710   6.693   3.994  1.00 20.00     0.063 C 
HETATM    5  C6  UNL     1     -34.472   5.652   4.841  1.00 20.00    -0.037 C 
HETATM    6  C7  UNL     1     -33.700   4.333   5.036  1.00 20.00     0.015 C 
HETATM    7  C8  UNL     1     -35.852   5.338   4.251  1.00 20.00     0.015 C 
ENDROOT
BRANCH   4   8
HETATM    8  C1  UNL     1     -33.021   6.115   2.797  1.00 20.00     0.131 C 
HETATM    9  O11 UNL     1     -33.107   4.917   2.533  1.00 20.00    -0.298 OA
BRANCH   8  10
HETATM   10  C10 UNL     1     -32.224   7.089   1.949  1.00 20.00     0.074 C 
HETATM   11  C9  UNL     1     -33.086   8.189   1.356  1.00 20.00     0.013 C 
ENDBRANCH   8  10
ENDBRANCH   4   8
TORSDOF 2
