REMARK  0 active torsions:
REMARK  status: ('A' for Active; 'I' for Inactive)
ROOT
HETATM    1  C1  UNL     1     -33.031   7.096   1.574  1.00 20.00     0.088 C 
HETATM    2  C2  UNL     1     -33.935   6.269   3.648  1.00 20.00    -0.062 C 
HETATM    3  C3  UNL     1     -33.465   6.039   2.409  1.00 20.00     0.097 C 
HETATM    4  C4  UNL     1     -34.003   7.692   4.163  1.00 20.00     0.036 C 
HETATM    5  C5  UNL     1     -33.282   7.834   5.501  1.00 20.00     0.004 C 
HETATM    6  C6  UNL     1     -33.790   6.826   6.526  1.00 20.00     0.001 C 
HETATM    7  C7  UNL     1     -33.698   5.395   5.992  1.00 20.00     0.013 C 
HETATM    8  C8  UNL     1     -34.404   5.182   4.626  1.00 20.00    -0.024 C 
HETATM    9  C9  UNL     1     -34.080   3.743   4.164  1.00 20.00     0.019 C 
HETATM   10  C10 UNL     1     -35.937   5.268   4.793  1.00 20.00     0.019 C 
HETATM   11  N11 UNL     1     -32.673   7.955   0.882  1.00 20.00    -0.192 NA
ENDROOT
TORSDOF 0
