REMARK  2 active torsions:
REMARK  status: ('A' for Active; 'I' for Inactive)
REMARK    1  A    between atoms: C2_2  and  C6_6 
REMARK    2  A    between atoms: C6_6  and  O10_10 
ROOT
HETATM    1  C3  UNL     1     -34.247   3.683   4.414  1.00 20.00     0.004 C 
HETATM    2  C4  UNL     1     -33.184   4.313   3.505  1.00 20.00     0.043 C 
HETATM    3  C5  UNL     1     -35.154   4.822   4.885  1.00 20.00     0.012 C 
HETATM    4  C6  UNL     1     -33.623   5.771   3.307  1.00 20.00     0.082 C 
HETATM    5  C7  UNL     1     -34.350   6.115   4.641  1.00 20.00    -0.013 C 
HETATM    6  C8  UNL     1     -35.291   7.324   4.539  1.00 20.00     0.018 C 
HETATM    7  C9  UNL     1     -33.384   6.353   5.821  1.00 20.00     0.018 C 
ENDROOT
BRANCH   4   8
HETATM    8  C2  UNL     1     -32.479   6.658   2.926  1.00 20.00     0.001 C 
HETATM    9  C1  UNL     1     -32.600   7.751   2.165  1.00 20.00     0.010 C 
ENDBRANCH   4   8
BRANCH   4  10
HETATM   10  O10 UNL     1     -34.563   5.766   2.223  1.00 20.00    -0.385 OA
HETATM   11  H26 UNL     1     -34.085   5.424   1.454  1.00 20.00     0.211 HD
ENDBRANCH   4  10
TORSDOF 2
