REMARK  3 active torsions:
REMARK  status: ('A' for Active; 'I' for Inactive)
REMARK    1  A    between atoms: C1_1  and  C6_6 
REMARK    2  A    between atoms: C2_2  and  C7_7 
REMARK    3  A    between atoms: C5_5  and  C6_6 
ROOT
HETATM    1  C3  UNL     1     -33.963   7.181   6.160  1.00 20.00     0.124 A 
HETATM    2  C4  UNL     1     -34.591   6.022   6.563  1.00 20.00     0.070 A 
HETATM    3  C5  UNL     1     -33.388   5.895   4.479  1.00 20.00     0.085 A 
HETATM    4  N8  UNL     1     -33.272   7.111   4.966  1.00 20.00    -0.257 NA
HETATM    5  S9  UNL     1     -34.314   4.786   5.406  1.00 20.00    -0.084 SA
ENDROOT
BRANCH   3   6
HETATM    6  C6  UNL     1     -32.770   5.432   3.186  1.00 20.00     0.161 C 
BRANCH   6   7
HETATM    7  C1  UNL     1     -32.698   6.512   2.195  1.00 20.00    -0.099 C 
HETATM    8  C2  UNL     1     -32.640   7.399   1.387  1.00 20.00    -0.091 C 
BRANCH   8   9
HETATM    9  C7  UNL     1     -32.570   8.478   0.405  1.00 20.00     0.208 C 
HETATM   10 CL10 UNL     1     -32.974  10.009   1.204  1.00 20.00    -0.117 Cl
ENDBRANCH   8   9
ENDBRANCH   6   7
ENDBRANCH   3   6
TORSDOF 3
