REMARK  0 active torsions:
REMARK  status: ('A' for Active; 'I' for Inactive)
ROOT
HETATM    1  C1  UNL     1     -33.468   6.417   4.317  1.00 20.00    -0.081 C 
HETATM    2  C2  UNL     1     -33.511   6.870   5.577  1.00 20.00     0.015 C 
HETATM    3  C3  UNL     1     -32.591   7.024   3.255  1.00 20.00     0.034 C 
HETATM    4  C4  UNL     1     -33.167   6.468   1.962  1.00 20.00     0.005 C 
HETATM    5  C5  UNL     1     -33.658   5.080   2.354  1.00 20.00     0.013 C 
HETATM    6  C6  UNL     1     -34.287   5.267   3.750  1.00 20.00    -0.025 C 
HETATM    7  C7  UNL     1     -35.768   5.664   3.628  1.00 20.00     0.019 C 
HETATM    8  C8  UNL     1     -34.165   3.974   4.565  1.00 20.00     0.019 C 
ENDROOT
TORSDOF 0
