REMARK  0 active torsions:
REMARK  status: ('A' for Active; 'I' for Inactive)
ROOT
HETATM    1  C1  UNL     1     -33.117   6.512   2.846  1.00 20.00     0.098 C 
HETATM    2  C2  UNL     1     -33.592   6.635   5.245  1.00 20.00     0.160 A 
HETATM    3  C3  UNL     1     -33.754   6.108   4.035  1.00 20.00     0.063 A 
HETATM    4  C4  UNL     1     -34.738   5.018   4.210  1.00 20.00     0.225 A 
HETATM    5  N5  UNL     1     -32.592   6.844   1.866  1.00 20.00    -0.192 NA
HETATM    6  N6  UNL     1     -34.358   6.016   6.196  1.00 20.00    -0.166 NA
HETATM    7  N7  UNL     1     -35.033   5.086   5.668  1.00 20.00    -0.188 NA
ENDROOT
TORSDOF 0
