REMARK  0 active torsions:
REMARK  status: ('A' for Active; 'I' for Inactive)
ROOT
HETATM    1  C1  UNL     1     -32.817   6.002   1.994  1.00 20.00     0.021 C 
HETATM    2  C2  UNL     1     -33.562   5.033   2.546  1.00 20.00     0.001 C 
HETATM    3  C3  UNL     1     -32.603   7.227   4.078  1.00 20.00     0.003 C 
HETATM    4  C4  UNL     1     -32.455   7.181   2.745  1.00 20.00     0.030 C 
HETATM    5  C5  UNL     1     -33.162   6.050   4.855  1.00 20.00     0.033 C 
HETATM    6  C6  UNL     1     -34.064   5.113   3.976  1.00 20.00     0.058 C 
HETATM    7  C7  UNL     1     -33.819   6.533   6.155  1.00 20.00     0.016 C 
HETATM    8  C8  UNL     1     -34.132   3.706   4.586  1.00 20.00     0.037 C 
HETATM    9 CL9  UNL     1     -31.765   8.509   1.887  1.00 20.00    -0.085 Cl
HETATM   10 CL10 UNL     1     -35.758   5.744   3.861  1.00 20.00    -0.115 Cl
ENDROOT
TORSDOF 0
