REMARK  1 active torsions:
REMARK  status: ('A' for Active; 'I' for Inactive)
REMARK    1  A    between atoms: C4_4  and  S9_9 
ROOT
HETATM    1  C1  UNL     1     -34.599   7.089   3.271  1.00 20.00     0.025 C 
HETATM    2  C2  UNL     1     -35.056   4.648   3.937  1.00 20.00     0.088 C 
HETATM    3  C3  UNL     1     -32.993   5.358   2.273  1.00 20.00     0.082 C 
HETATM    4  C4  UNL     1     -35.186   6.123   4.315  1.00 20.00     0.054 C 
HETATM    5  C5  UNL     1     -33.173   6.824   2.716  1.00 20.00    -0.038 C 
HETATM    6  C6  UNL     1     -32.074   7.236   3.716  1.00 20.00     0.015 C 
HETATM    7  C7  UNL     1     -32.988   7.719   1.466  1.00 20.00     0.015 C 
HETATM    8  S8  UNL     1     -33.353   4.140   3.571  1.00 20.00    -0.167 SA
ENDROOT
BRANCH   4   9
HETATM    9  S9  UNL     1     -34.586   6.445   6.015  1.00 20.00    -0.177 SA
HETATM   10  H23 UNL     1     -35.058   7.695   6.078  1.00 20.00     0.102 HD
ENDBRANCH   4   9
TORSDOF 1
