REMARK  1 active torsions:
REMARK  status: ('A' for Active; 'I' for Inactive)
REMARK    1  A    between atoms: C6_6  and  O10_10 
ROOT
HETATM    1  C1  UNL     1     -32.722   7.809   5.948  1.00 20.00     0.015 C 
HETATM    2  C2  UNL     1     -33.469   6.914   5.661  1.00 20.00    -0.077 C 
HETATM    3  C3  UNL     1     -35.534   4.533   3.391  1.00 20.00     0.023 C 
HETATM    4  C4  UNL     1     -36.942   4.700   3.953  1.00 20.00     0.075 C 
HETATM    5  C5  UNL     1     -35.726   6.047   6.037  1.00 20.00     0.126 C 
HETATM    6  C6  UNL     1     -34.389   5.809   5.307  1.00 20.00     0.135 C 
HETATM    7  C7  UNL     1     -34.539   5.673   3.750  1.00 20.00    -0.004 C 
HETATM    8  C8  UNL     1     -33.182   5.298   3.097  1.00 20.00     0.019 C 
HETATM    9  C9  UNL     1     -35.014   6.992   3.093  1.00 20.00     0.019 C 
HETATM   10  S11 UNL     1     -36.953   4.732   5.762  1.00 20.00    -0.165 SA
ENDROOT
BRANCH   6  11
HETATM   11  O10 UNL     1     -33.818   4.596   5.819  1.00 20.00    -0.376 OA
HETATM   12  H25 UNL     1     -33.745   4.717   6.776  1.00 20.00     0.211 HD
ENDBRANCH   6  11
TORSDOF 1
