REMARK  0 active torsions:
REMARK  status: ('A' for Active; 'I' for Inactive)
ROOT
HETATM    1  C1  UNL     1     -33.303   8.683   0.255  1.00 20.00     0.064 C 
HETATM    2  C2  UNL     1     -34.549   5.540   6.130  1.00 20.00     0.000 C 
HETATM    3  C3  UNL     1     -33.642   6.754   5.962  1.00 20.00     0.003 C 
HETATM    4  C4  UNL     1     -34.457   4.600   4.933  1.00 20.00     0.003 C 
HETATM    5  C5  UNL     1     -33.918   7.480   4.644  1.00 20.00     0.038 C 
HETATM    6  C6  UNL     1     -34.715   5.335   3.616  1.00 20.00     0.038 C 
HETATM    7  C7  UNL     1     -31.783   8.063   2.097  1.00 20.00     0.045 C 
HETATM    8  C8  UNL     1     -34.162   7.278   2.102  1.00 20.00     0.057 C 
HETATM    9  C9  UNL     1     -31.411   6.969   3.093  1.00 20.00     0.170 C 
HETATM   10  C10 UNL     1     -32.954   7.633   1.225  1.00 20.00     0.097 C 
HETATM   11  C11 UNL     1     -33.778   6.549   3.416  1.00 20.00     0.062 C 
HETATM   12  N12 UNL     1     -33.578   9.510  -0.510  1.00 20.00    -0.197 NA
HETATM   13  O13 UNL     1     -32.450   6.017   3.311  1.00 20.00    -0.380 OA
ENDROOT
TORSDOF 0
