REMARK  0 active torsions:
REMARK  status: ('A' for Active; 'I' for Inactive)
ROOT
HETATM    1  C1  UNL     1     -34.667   5.816   2.440  1.00 20.00     0.056 C 
HETATM    2  C2  UNL     1     -34.009   7.156   2.703  1.00 20.00     0.094 C 
HETATM    3  C3  UNL     1     -33.682   4.788   3.010  1.00 20.00     0.056 C 
HETATM    4  C4  UNL     1     -33.154   6.892   3.944  1.00 20.00     0.068 C 
HETATM    5  C5  UNL     1     -34.402   3.708   3.822  1.00 20.00     0.045 C 
HETATM    6  C6  UNL     1     -32.833   4.118   1.928  1.00 20.00     0.045 C 
HETATM    7  C7  UNL     1     -31.873   7.714   4.090  1.00 20.00     0.047 C 
HETATM    8  C8  UNL     1     -33.997   7.094   5.217  1.00 20.00     0.047 C 
HETATM    9  O9  UNL     1     -32.789   5.498   3.889  1.00 20.00    -0.369 OA
HETATM   10 BR10 UNL     1     -33.007   7.709   1.120  1.00 20.00    -0.088 Br
ENDROOT
TORSDOF 0
