REMARK  3 active torsions:
REMARK  status: ('A' for Active; 'I' for Inactive)
REMARK    1  A    between atoms: C4_4  and  C7_7 
REMARK    2  A    between atoms: C4_4  and  O9_9 
REMARK    3  A    between atoms: C7_7  and  C8_8 
ROOT
HETATM    1  C1  UNL     1     -34.410   6.260   2.922  1.00 20.00     0.053 C 
HETATM    2  C2  UNL     1     -32.467   7.211   4.077  1.00 20.00     0.112 C 
HETATM    3  C3  UNL     1     -34.804   5.872   4.349  1.00 20.00     0.046 C 
HETATM    4  C4  UNL     1     -32.886   6.404   2.852  1.00 20.00     0.067 C 
HETATM    5  C5  UNL     1     -34.815   4.369   4.601  1.00 20.00     0.021 C 
HETATM    6  S10 UNL     1     -33.576   6.686   5.420  1.00 20.00    -0.162 SA
ENDROOT
BRANCH   4   7
HETATM    7  C7  UNL     1     -32.442   7.084   1.559  1.00 20.00     0.038 C 
BRANCH   7   8
HETATM    8  C8  UNL     1     -33.069   8.467   1.419  1.00 20.00    -0.002 C 
HETATM    9  C6  UNL     1     -32.607   9.156   0.145  1.00 20.00     0.005 C 
ENDBRANCH   7   8
ENDBRANCH   4   7
BRANCH   4  10
HETATM   10  O9  UNL     1     -32.257   5.124   2.902  1.00 20.00    -0.389 OA
HETATM   11  H26 UNL     1     -31.302   5.285   2.854  1.00 20.00     0.210 HD
ENDBRANCH   4  10
TORSDOF 3
