REMARK  0 active torsions:
REMARK  status: ('A' for Active; 'I' for Inactive)
ROOT
HETATM    1  C1  UNL     1     -32.503   7.317   3.867  1.00 20.00     0.086 C 
HETATM    2  C2  UNL     1     -34.754   6.588   3.056  1.00 20.00     0.056 C 
HETATM    3  C3  UNL     1     -32.760   5.335   2.384  1.00 20.00     0.115 C 
HETATM    4  C4  UNL     1     -34.972   5.354   3.941  1.00 20.00     0.046 C 
HETATM    5  C5  UNL     1     -33.259   6.729   2.750  1.00 20.00     0.135 C 
HETATM    6  C6  UNL     1     -34.943   5.650   5.435  1.00 20.00     0.021 C 
HETATM    7  N7  UNL     1     -31.907   7.780   4.748  1.00 20.00    -0.195 NA
HETATM    8  S8  UNL     1     -33.640   4.193   3.493  1.00 20.00    -0.162 SA
HETATM    9 CL9  UNL     1     -33.022   7.844   1.368  1.00 20.00    -0.102 Cl
ENDROOT
TORSDOF 0
