REMARK  0 active torsions:
REMARK  status: ('A' for Active; 'I' for Inactive)
ROOT
HETATM    1  C1  UNL     1     -33.156   7.368   4.764  1.00 20.00     0.067 C 
HETATM    2  C2  UNL     1     -31.746   7.523   2.751  1.00 20.00     0.059 C 
HETATM    3  C3  UNL     1     -32.460   6.594   3.720  1.00 20.00     0.129 C 
HETATM    4  C4  UNL     1     -32.775   7.775   1.643  1.00 20.00     0.056 C 
HETATM    5  C5  UNL     1     -33.398   5.807   2.788  1.00 20.00     0.071 C 
HETATM    6  C6  UNL     1     -33.553   9.076   1.854  1.00 20.00     0.045 C 
HETATM    7  C7  UNL     1     -32.124   7.787   0.260  1.00 20.00     0.045 C 
HETATM    8  C8  UNL     1     -32.677   4.587   2.191  1.00 20.00     0.047 C 
HETATM    9  C9  UNL     1     -34.710   5.338   3.421  1.00 20.00     0.047 C 
HETATM   10  N10 UNL     1     -33.703   7.977   5.585  1.00 20.00    -0.197 NA
HETATM   11  O11 UNL     1     -33.719   6.689   1.693  1.00 20.00    -0.369 OA
ENDROOT
TORSDOF 0
