REMARK  1 active torsions:
REMARK  status: ('A' for Active; 'I' for Inactive)
REMARK    1  A    between atoms: C2_2  and  C3_3 
ROOT
HETATM    1  C1  UNL     1     -33.298   6.577   2.465  1.00 20.00    -0.063 C 
HETATM    2  C2  UNL     1     -33.806   7.057   1.319  1.00 20.00     0.088 C 
HETATM    3  C4  UNL     1     -33.818   5.311   3.102  1.00 20.00     0.044 C 
HETATM    4  C5  UNL     1     -32.163   7.254   3.178  1.00 20.00     0.108 C 
HETATM    5  C6  UNL     1     -33.319   6.188   5.450  1.00 20.00     0.083 C 
HETATM    6  C7  UNL     1     -34.373   5.521   4.535  1.00 20.00    -0.036 C 
HETATM    7  C8  UNL     1     -34.717   4.138   5.127  1.00 20.00     0.016 C 
HETATM    8  C9  UNL     1     -35.675   6.350   4.496  1.00 20.00     0.016 C 
HETATM    9  S12 UNL     1     -32.684   7.784   4.833  1.00 20.00    -0.164 SA
ENDROOT
BRANCH   2  10
HETATM   10  C3  UNL     1     -33.274   8.342   0.678  1.00 20.00     0.198 C 
HETATM   11  O10 UNL     1     -32.324   8.151  -0.138  1.00 20.00    -0.644 OA
HETATM   12  O11 UNL     1     -33.822   9.427   1.021  1.00 20.00    -0.644 OA
ENDBRANCH   2  10
TORSDOF 1
