REMARK  2 active torsions:
REMARK  status: ('A' for Active; 'I' for Inactive)
REMARK    1  A    between atoms: C1_1  and  C5_5 
REMARK    2  A    between atoms: C1_1  and  C8_8 
ROOT
HETATM    1  C2  UNL     1     -32.979   8.911  -0.186  1.00 20.00     0.084 C 
HETATM    2  C3  UNL     1     -31.760   8.118   0.257  1.00 20.00     0.085 C 
HETATM    3  C4  UNL     1     -34.344   8.086   2.077  1.00 20.00     0.096 C 
HETATM    4  C5  UNL     1     -33.120   7.296   2.525  1.00 20.00     0.126 C 
HETATM    5  S10 UNL     1     -33.904   9.622   1.208  1.00 20.00    -0.167 SA
HETATM    6  S11 UNL     1     -32.194   6.583   1.129  1.00 20.00    -0.155 SA
ENDROOT
BRANCH   4   7
HETATM    7  C1  UNL     1     -33.554   6.143   3.375  1.00 20.00     0.144 C 
HETATM    8  O9  UNL     1     -33.342   4.984   3.019  1.00 20.00    -0.296 OA
BRANCH   7   9
HETATM    9  C8  UNL     1     -34.292   6.479   4.668  1.00 20.00     0.048 C 
HETATM   10  C6  UNL     1     -34.675   5.197   5.397  1.00 20.00     0.017 C 
HETATM   11  C7  UNL     1     -33.445   7.380   5.563  1.00 20.00     0.017 C 
ENDBRANCH   7   9
ENDBRANCH   4   7
TORSDOF 2
