REMARK  2 active torsions:
REMARK  status: ('A' for Active; 'I' for Inactive)
REMARK    1  A    between atoms: C5_5  and  N9_9 
REMARK    2  A    between atoms: C8_8  and  N9_9 
ROOT
HETATM    1  C1  UNL     1     -33.449   9.239   0.163  1.00 20.00     0.013 C 
HETATM    2  C2  UNL     1     -32.773   8.337   0.576  1.00 20.00    -0.087 C 
HETATM    3  C8  UNL     1     -31.946   7.235   1.075  1.00 20.00     0.362 C 
ENDROOT
BRANCH   3   4
HETATM    4  N9  UNL     1     -32.018   7.155   2.528  1.00 20.00     0.099 N 
HETATM    5  H23 UNL     1     -31.215   6.632   2.875  1.00 20.00     0.317 HD
BRANCH   4   6
HETATM    6  C5  UNL     1     -33.228   6.499   2.948  1.00 20.00     0.232 C 
HETATM    7  C3  UNL     1     -33.582   6.830   4.395  1.00 20.00     0.051 C 
HETATM    8  C6  UNL     1     -34.774   5.948   4.756  1.00 20.00     0.045 C 
HETATM    9  C7  UNL     1     -34.954   5.788   6.256  1.00 20.00     0.021 C 
HETATM   10  S10 UNL     1     -34.423   4.351   3.950  1.00 20.00    -0.162 SA
HETATM   11  C4  UNL     1     -33.100   4.983   2.880  1.00 20.00     0.109 C 
ENDBRANCH   4   6
ENDBRANCH   3   4
TORSDOF 2
