REMARK  0 active torsions:
REMARK  status: ('A' for Active; 'I' for Inactive)
ROOT
HETATM    1  C1  UNL     1     -33.074   5.046   2.660  1.00 20.00    -0.053 C 
HETATM    2  C2  UNL     1     -32.828   4.443   1.491  1.00 20.00     0.017 C 
HETATM    3  C3  UNL     1     -33.445   4.339   3.919  1.00 20.00     0.073 C 
HETATM    4  C4  UNL     1     -33.134   6.525   2.936  1.00 20.00     0.077 C 
HETATM    5  C5  UNL     1     -34.381   5.359   4.564  1.00 20.00     0.059 C 
HETATM    6  C6  UNL     1     -31.741   7.095   3.213  1.00 20.00     0.051 C 
HETATM    7  C7  UNL     1     -33.840   7.347   1.855  1.00 20.00     0.051 C 
HETATM    8  C8  UNL     1     -35.830   5.207   4.085  1.00 20.00     0.046 C 
HETATM    9  C9  UNL     1     -34.331   5.285   6.089  1.00 20.00     0.046 C 
HETATM   10  O10 UNL     1     -33.895   6.656   4.161  1.00 20.00    -0.366 OA
ENDROOT
TORSDOF 0
