REMARK  3 active torsions:
REMARK  status: ('A' for Active; 'I' for Inactive)
REMARK    1  A    between atoms: C6_6  and  C9_9 
REMARK    2  A    between atoms: C6_6  and  O10_10 
REMARK    3  A    between atoms: C8_8  and  C9_9 
ROOT
HETATM    1  C1  UNL     1     -33.067   9.047  -1.646  1.00 20.00     0.012 C 
HETATM    2  C2  UNL     1     -33.226   8.635  -0.530  1.00 20.00    -0.117 C 
HETATM    3  C8  UNL     1     -33.423   8.136   0.837  1.00 20.00     0.096 C 
ENDROOT
BRANCH   3   4
HETATM    4  C9  UNL     1     -32.865   6.731   0.967  1.00 20.00     0.050 C 
BRANCH   4   5
HETATM    5  C6  UNL     1     -33.071   6.194   2.382  1.00 20.00     0.068 C 
HETATM    6  C3  UNL     1     -34.558   6.097   2.739  1.00 20.00     0.053 C 
HETATM    7  C5  UNL     1     -34.690   5.863   4.246  1.00 20.00     0.046 C 
HETATM    8  C7  UNL     1     -34.665   4.393   4.648  1.00 20.00     0.021 C 
HETATM    9  S11 UNL     1     -33.283   6.749   4.990  1.00 20.00    -0.162 SA
HETATM   10  C4  UNL     1     -32.432   7.109   3.422  1.00 20.00     0.112 C 
BRANCH   5  11
HETATM   11  O10 UNL     1     -32.452   4.910   2.450  1.00 20.00    -0.389 OA
HETATM   12  H25 UNL     1     -31.521   5.042   2.214  1.00 20.00     0.210 HD
ENDBRANCH   5  11
ENDBRANCH   4   5
ENDBRANCH   3   4
TORSDOF 3
