REMARK  0 active torsions:
REMARK  status: ('A' for Active; 'I' for Inactive)
ROOT
HETATM    1  C1  UNL     1     -33.159   4.603   2.834  1.00 20.00     0.086 C 
HETATM    2  C2  UNL     1     -34.127   6.738   1.988  1.00 20.00     0.056 C 
HETATM    3  C3  UNL     1     -33.244   6.639   4.265  1.00 20.00     0.115 C 
HETATM    4  C4  UNL     1     -32.784   7.421   1.721  1.00 20.00     0.046 C 
HETATM    5  C5  UNL     1     -33.933   5.805   3.187  1.00 20.00     0.135 C 
HETATM    6  C6  UNL     1     -32.930   8.714   0.935  1.00 20.00     0.021 C 
HETATM    7  N7  UNL     1     -32.549   3.655   2.556  1.00 20.00    -0.195 NA
HETATM    8  S8  UNL     1     -32.081   7.725   3.375  1.00 20.00    -0.162 SA
HETATM    9 CL9  UNL     1     -35.516   5.223   3.778  1.00 20.00    -0.102 Cl
ENDROOT
TORSDOF 0
