REMARK  2 active torsions:
REMARK  status: ('A' for Active; 'I' for Inactive)
REMARK    1  A    between atoms: C2_2  and  C6_6 
REMARK    2  A    between atoms: C6_6  and  O9_9 
ROOT
HETATM    1  C3  UNL     1     -33.390   6.643   4.549  1.00 20.00     0.058 C 
HETATM    2  C4  UNL     1     -33.154   5.014   2.736  1.00 20.00     0.116 C 
HETATM    3  C5  UNL     1     -34.363   5.590   5.081  1.00 20.00     0.046 C 
HETATM    4  C6  UNL     1     -33.365   6.502   3.025  1.00 20.00     0.089 C 
HETATM    5  C8  UNL     1     -34.146   5.282   6.553  1.00 20.00     0.021 C 
HETATM    6  S10 UNL     1     -34.060   4.125   4.043  1.00 20.00    -0.161 SA
ENDROOT
BRANCH   4   7
HETATM    7  C2  UNL     1     -32.295   7.354   2.417  1.00 20.00    -0.058 C 
HETATM    8  C1  UNL     1     -32.415   7.872   1.186  1.00 20.00     0.017 C 
HETATM    9  C7  UNL     1     -31.081   7.597   3.265  1.00 20.00     0.046 C 
ENDBRANCH   4   7
BRANCH   4  10
HETATM   10  O9  UNL     1     -34.625   6.921   2.497  1.00 20.00    -0.385 OA
HETATM   11  H24 UNL     1     -34.574   6.798   1.538  1.00 20.00     0.211 HD
ENDBRANCH   4  10
TORSDOF 2
