REMARK  1 active torsions:
REMARK  status: ('A' for Active; 'I' for Inactive)
REMARK    1  A    between atoms: C5_5  and  O9_9 
ROOT
HETATM    1  C1  UNL     1     -32.494   7.164   4.076  1.00 20.00     0.022 C 
HETATM    2  C2  UNL     1     -32.493   7.258   2.553  1.00 20.00     0.075 C 
HETATM    3  C3  UNL     1     -34.055   4.988   2.613  1.00 20.00     0.112 C 
HETATM    4  C4  UNL     1     -33.747   6.495   4.700  1.00 20.00    -0.015 C 
HETATM    5  C5  UNL     1     -33.958   5.035   4.151  1.00 20.00     0.069 C 
HETATM    6  C6  UNL     1     -33.563   6.491   6.238  1.00 20.00     0.018 C 
HETATM    7  C7  UNL     1     -34.992   7.378   4.422  1.00 20.00     0.018 C 
HETATM    8  C8  UNL     1     -32.892   4.037   4.646  1.00 20.00     0.047 C 
HETATM    9  S10 UNL     1     -32.592   5.634   1.758  1.00 20.00    -0.166 SA
ENDROOT
BRANCH   5  10
HETATM   10  O9  UNL     1     -35.215   4.549   4.657  1.00 20.00    -0.389 OA
HETATM   11  H26 UNL     1     -35.304   3.648   4.319  1.00 20.00     0.210 HD
ENDBRANCH   5  10
TORSDOF 1
