REMARK  2 active torsions:
REMARK  status: ('A' for Active; 'I' for Inactive)
REMARK    1  A    between atoms: C2_2  and  C3_3 
REMARK    2  A    between atoms: C3_3  and  C7_7 
ROOT
HETATM    1  C4  UNL     1     -32.401   9.457   0.596  1.00 20.00     0.084 C 
HETATM    2  C5  UNL     1     -33.023   8.307  -0.177  1.00 20.00     0.085 C 
HETATM    3  C6  UNL     1     -33.826   8.199   2.660  1.00 20.00     0.097 C 
HETATM    4  C7  UNL     1     -32.806   7.112   2.353  1.00 20.00     0.131 C 
HETATM    5  S10 UNL     1     -33.285   9.858   2.138  1.00 20.00    -0.167 SA
HETATM    6  S11 UNL     1     -32.724   6.680   0.582  1.00 20.00    -0.155 SA
ENDROOT
BRANCH   4   7
HETATM    7  C3  UNL     1     -33.181   5.854   3.071  1.00 20.00     0.169 C 
HETATM    8  O9  UNL     1     -32.907   4.755   2.586  1.00 20.00    -0.291 OA
BRANCH   7   9
HETATM    9  C2  UNL     1     -33.894   5.934   4.389  1.00 20.00    -0.024 C 
HETATM   10  C1  UNL     1     -35.107   5.391   4.562  1.00 20.00     0.022 C 
HETATM   11  C8  UNL     1     -33.178   6.650   5.497  1.00 20.00     0.051 C 
ENDBRANCH   7   9
ENDBRANCH   4   7
TORSDOF 2
