REMARK  3 active torsions:
REMARK  status: ('A' for Active; 'I' for Inactive)
REMARK    1  A    between atoms: C6_6  and  C9_9 
REMARK    2  A    between atoms: C6_6  and  O10_10 
REMARK    3  A    between atoms: C8_8  and  C9_9 
ROOT
HETATM    1  C1  UNL     1     -33.044  11.237   0.543  1.00 20.00     0.012 C 
HETATM    2  C2  UNL     1     -32.884  10.089   0.854  1.00 20.00    -0.117 C 
HETATM    3  C8  UNL     1     -32.685   8.683   1.232  1.00 20.00     0.096 C 
ENDROOT
BRANCH   3   4
HETATM    4  C9  UNL     1     -33.294   8.415   2.596  1.00 20.00     0.050 C 
BRANCH   4   5
HETATM    5  C6  UNL     1     -33.089   6.960   3.005  1.00 20.00     0.068 C 
HETATM    6  C3  UNL     1     -33.737   6.660   4.359  1.00 20.00     0.053 C 
HETATM    7  C5  UNL     1     -33.688   5.146   4.565  1.00 20.00     0.046 C 
HETATM    8  C7  UNL     1     -34.718   4.657   5.569  1.00 20.00     0.021 C 
HETATM    9  S11 UNL     1     -33.991   4.446   2.910  1.00 20.00    -0.162 SA
HETATM   10  C4  UNL     1     -33.718   5.998   1.999  1.00 20.00     0.112 C 
BRANCH   5  11
HETATM   11  O10 UNL     1     -31.678   6.744   3.075  1.00 20.00    -0.389 OA
HETATM   12  H25 UNL     1     -31.328   6.949   2.195  1.00 20.00     0.210 HD
ENDBRANCH   5  11
ENDBRANCH   4   5
ENDBRANCH   3   4
TORSDOF 3
