REMARK  0 active torsions:
REMARK  status: ('A' for Active; 'I' for Inactive)
ROOT
HETATM    1  C1  UNL     1     -32.159   7.481   3.495  1.00 20.00     0.086 C 
HETATM    2  C2  UNL     1     -34.623   6.557   6.303  1.00 20.00     0.013 C 
HETATM    3  C3  UNL     1     -33.408   7.124   5.568  1.00 20.00     0.043 C 
HETATM    4  C4  UNL     1     -34.789   5.059   6.102  1.00 20.00     0.074 C 
HETATM    5  C5  UNL     1     -33.559   5.431   3.643  1.00 20.00     0.081 C 
HETATM    6  C6  UNL     1     -33.418   6.925   4.037  1.00 20.00     0.137 C 
HETATM    7  C7  UNL     1     -33.584   5.164   2.132  1.00 20.00     0.024 C 
HETATM    8  N8  UNL     1     -31.171   7.916   3.069  1.00 20.00    -0.195 NA
HETATM    9  S9  UNL     1     -35.055   4.645   4.359  1.00 20.00    -0.162 SA
HETATM   10 CL10 UNL     1     -34.728   7.933   3.315  1.00 20.00    -0.102 Cl
ENDROOT
TORSDOF 0
