REMARK  1 active torsions:
REMARK  status: ('A' for Active; 'I' for Inactive)
REMARK    1  A    between atoms: C4_4  and  S9_9 
ROOT
HETATM    1  C1  UNL     1     -34.572   4.843   4.712  1.00 20.00     0.020 C 
HETATM    2  C2  UNL     1     -35.196   5.755   5.760  1.00 20.00     0.075 C 
HETATM    3  C3  UNL     1     -33.502   7.699   4.792  1.00 20.00     0.089 C 
HETATM    4  C4  UNL     1     -33.003   6.637   3.803  1.00 20.00     0.061 C 
HETATM    5  C5  UNL     1     -34.066   5.553   3.425  1.00 20.00    -0.034 C 
HETATM    6  C6  UNL     1     -35.271   6.136   2.654  1.00 20.00     0.016 C 
HETATM    7  C7  UNL     1     -33.426   4.460   2.535  1.00 20.00     0.016 C 
HETATM    8  S8  UNL     1     -34.011   6.975   6.377  1.00 20.00    -0.168 SA
ENDROOT
BRANCH   4   9
HETATM    9  S9  UNL     1     -32.311   7.533   2.352  1.00 20.00    -0.176 SA
HETATM   10  H23 UNL     1     -31.382   8.187   3.056  1.00 20.00     0.102 HD
ENDBRANCH   4   9
TORSDOF 1
