REMARK  1 active torsions:
REMARK  status: ('A' for Active; 'I' for Inactive)
REMARK    1  A    between atoms: C7_7  and  C11_11 
ROOT
HETATM    1  C1  UNL     1     -32.723   9.608   0.284  1.00 20.00     0.030 C 
HETATM    2  C2  UNL     1     -33.350   8.267  -0.049  1.00 20.00     0.036 C 
HETATM    3  C3  UNL     1     -34.132   6.384   1.491  1.00 20.00     0.305 C 
HETATM    4  C4  UNL     1     -33.060   9.780   1.750  1.00 20.00     0.235 C 
HETATM    5  C5  UNL     1     -33.704   8.094   3.528  1.00 20.00     0.271 C 
HETATM    6  C6  UNL     1     -33.040   7.401   1.170  1.00 20.00     0.216 C 
HETATM    7  C7  UNL     1     -33.531   6.610   3.873  1.00 20.00     0.251 C 
HETATM    8  C10 UNL     1     -33.077   4.547   2.674  1.00 20.00     0.310 C 
HETATM    9  N12 UNL     1     -33.959   5.709   2.783  1.00 20.00     0.092 N 
HETATM   10  N13 UNL     1     -32.871   8.391   2.313  1.00 20.00    -0.063 N 
HETATM   11  H36 UNL     1     -31.856   8.305   2.636  1.00 20.00     0.280 HD
ENDROOT
BRANCH   7  12
HETATM   12  C11 UNL     1     -34.341   6.277   5.128  1.00 20.00     0.012 C 
HETATM   13  C8  UNL     1     -34.209   4.797   5.464  1.00 20.00     0.012 C 
HETATM   14  C9  UNL     1     -33.885   7.144   6.295  1.00 20.00     0.012 C 
ENDBRANCH   7  12
TORSDOF 1
