REMARK  0 active torsions:
REMARK  status: ('A' for Active; 'I' for Inactive)
ROOT
HETATM    1  C1  UNL     1     -32.851   8.189   1.179  1.00 20.00     0.088 C 
HETATM    2  C2  UNL     1     -33.137   6.936   3.216  1.00 20.00    -0.057 C 
HETATM    3  C3  UNL     1     -33.201   8.100   2.547  1.00 20.00     0.097 C 
HETATM    4  C4  UNL     1     -32.681   5.678   2.510  1.00 20.00     0.037 C 
HETATM    5  C5  UNL     1     -33.763   4.597   2.511  1.00 20.00     0.014 C 
HETATM    6  C6  UNL     1     -34.215   4.198   3.912  1.00 20.00     0.075 C 
HETATM    7  C7  UNL     1     -33.472   6.757   4.684  1.00 20.00     0.072 C 
HETATM    8  C8  UNL     1     -33.807   8.028   5.468  1.00 20.00     0.026 C 
HETATM    9  N9  UNL     1     -32.565   8.272   0.057  1.00 20.00    -0.192 NA
HETATM   10  S10 UNL     1     -34.896   5.612   4.832  1.00 20.00    -0.160 SA
ENDROOT
TORSDOF 0
