REMARK  4 active torsions:
REMARK  status: ('A' for Active; 'I' for Inactive)
REMARK    1  A    between atoms: C1_1  and  C9_9 
REMARK    2  A    between atoms: C2_2  and  C10_10 
REMARK    3  A    between atoms: C9_9  and  N11_11 
REMARK    4  A    between atoms: C10_10  and  S12_12 
ROOT
HETATM    1  C3  UNL     1     -34.659   4.668   5.867  1.00 20.00     0.002 C 
HETATM    2  C4  UNL     1     -34.729   6.177   6.069  1.00 20.00     0.002 C 
HETATM    3  C5  UNL     1     -34.947   4.187   4.448  1.00 20.00     0.030 C 
HETATM    4  C6  UNL     1     -33.449   6.880   5.624  1.00 20.00     0.030 C 
HETATM    5  C7  UNL     1     -34.572   5.118   3.295  1.00 20.00     0.272 C 
HETATM    6  C8  UNL     1     -33.234   6.970   4.113  1.00 20.00     0.272 C 
HETATM    7  N11 UNL     1     -33.215   5.675   3.410  1.00 20.00     0.091 N 
ENDROOT
BRANCH   7   8
HETATM    8  C9  UNL     1     -32.648   5.869   2.069  1.00 20.00     0.299 C 
BRANCH   8   9
HETATM    9  C1  UNL     1     -33.478   6.811   1.251  1.00 20.00    -0.000 C 
HETATM   10  C2  UNL     1     -33.023   7.977   0.766  1.00 20.00    -0.019 C 
BRANCH  10  11
HETATM   11  C10 UNL     1     -33.852   8.914  -0.054  1.00 20.00     0.097 C 
BRANCH  11  12
HETATM   12  S12 UNL     1     -33.109   9.133  -1.693  1.00 20.00    -0.178 SA
HETATM   13  H31 UNL     1     -34.037   9.980  -2.160  1.00 20.00     0.101 HD
ENDBRANCH  11  12
ENDBRANCH  10  11
ENDBRANCH   8   9
ENDBRANCH   7   8
TORSDOF 4
