REMARK  2 active torsions:
REMARK  status: ('A' for Active; 'I' for Inactive)
REMARK    1  A    between atoms: C5_5  and  C10_10 
REMARK    2  A    between atoms: C6_6  and  C11_11 
ROOT
HETATM    1  C1  UNL     1     -33.112   7.848   3.030  1.00 20.00     0.008 A 
HETATM    2  C2  UNL     1     -32.806   6.112   1.378  1.00 20.00     0.008 A 
HETATM    3  C3  UNL     1     -33.740   6.933   3.875  1.00 20.00     0.010 A 
HETATM    4  C4  UNL     1     -33.433   5.197   2.223  1.00 20.00     0.010 A 
HETATM    5  C5  UNL     1     -32.645   7.438   1.782  1.00 20.00    -0.054 A 
HETATM    6  C6  UNL     1     -33.901   5.608   3.472  1.00 20.00    -0.027 A 
ENDROOT
BRANCH   5   7
HETATM    7  C10 UNL     1     -31.974   8.415   0.879  1.00 20.00     0.018 A 
HETATM    8  C7  UNL     1     -32.697   9.684   0.507  1.00 20.00     0.010 A 
HETATM    9  C8  UNL     1     -32.506   8.609  -0.517  1.00 20.00     0.010 A 
ENDBRANCH   5   7
BRANCH   6  10
HETATM   10  C11 UNL     1     -34.571   4.631   4.375  1.00 20.00     0.178 A 
HETATM   11  C9  UNL     1     -34.460   4.801   5.866  1.00 20.00     0.205 A 
HETATM   12  O12 UNL     1     -35.661   5.129   5.163  1.00 20.00    -0.376 OA
ENDBRANCH   6  10
TORSDOF 2
