REMARK  5 active torsions:
REMARK  status: ('A' for Active; 'I' for Inactive)
REMARK    1  A    between atoms: C4_4  and  C7_7 
REMARK    2  A    between atoms: C4_4  and  O8_8 
REMARK    3  A    between atoms: C5_5  and  C7_7 
REMARK    4  A    between atoms: C5_5  and  S9_9 
REMARK    5  A    between atoms: C6_6  and  C7_7 
ROOT
HETATM    1  C7  UNL     1     -32.847   6.559   2.963  1.00 20.00     0.022 C 
ENDROOT
BRANCH   1   2
HETATM    2  C4  UNL     1     -32.217   7.156   1.688  1.00 20.00     0.172 C 
BRANCH   2   3
HETATM    3  O8  UNL     1     -33.196   7.844   0.919  1.00 20.00    -0.396 OA
HETATM    4  C3  UNL     1     -32.624   8.455  -0.228  1.00 20.00     0.201 C 
ENDBRANCH   2   3
ENDBRANCH   1   2
BRANCH   1   5
HETATM    5  C5  UNL     1     -33.492   7.650   3.854  1.00 20.00     0.077 C 
BRANCH   5   6
HETATM    6  S9  UNL     1     -33.704   7.198   5.604  1.00 20.00    -0.182 SA
HETATM    7  H25 UNL     1     -34.260   8.357   5.979  1.00 20.00     0.101 HD
ENDBRANCH   5   6
ENDBRANCH   1   5
BRANCH   1   8
HETATM    8  C6  UNL     1     -33.796   5.363   2.634  1.00 20.00    -0.016 C 
HETATM    9  C1  UNL     1     -33.275   4.517   1.463  1.00 20.00     0.010 C 
HETATM   10  C2  UNL     1     -34.006   4.438   3.840  1.00 20.00     0.010 C 
ENDBRANCH   1   8
TORSDOF 5
