REMARK  1 active torsions:
REMARK  status: ('A' for Active; 'I' for Inactive)
REMARK    1  A    between atoms: C5_5  and  C12_12 
ROOT
HETATM    1  C1  UNL     1     -33.283   5.753   1.500  1.00 20.00     0.008 A 
HETATM    2  C2  UNL     1     -33.593   4.683   2.346  1.00 20.00     0.009 A 
HETATM    3  C3  UNL     1     -33.443   7.326   3.347  1.00 20.00     0.023 A 
HETATM    4  C4  UNL     1     -33.747   6.249   4.158  1.00 20.00     0.017 A 
HETATM    5  C5  UNL     1     -33.208   7.065   1.997  1.00 20.00    -0.053 A 
HETATM    6  C6  UNL     1     -33.826   4.944   3.687  1.00 20.00    -0.044 A 
HETATM    7  C7  UNL     1     -34.033   6.235   5.583  1.00 20.00     0.160 A 
HETATM    8  C8  UNL     1     -34.170   3.960   4.758  1.00 20.00     0.047 A 
HETATM    9  C9  UNL     1     -34.311   4.819   6.027  1.00 20.00     0.088 A 
HETATM   10  O13 UNL     1     -34.042   7.226   6.291  1.00 20.00    -0.292 OA
ENDROOT
BRANCH   5  11
HETATM   11  C12 UNL     1     -32.876   8.186   1.073  1.00 20.00     0.018 A 
HETATM   12  C10 UNL     1     -33.370   8.133  -0.350  1.00 20.00     0.010 A 
HETATM   13  C11 UNL     1     -31.914   7.942  -0.060  1.00 20.00     0.010 A 
ENDBRANCH   5  11
TORSDOF 1
