REMARK  1 active torsions:
REMARK  status: ('A' for Active; 'I' for Inactive)
REMARK    1  A    between atoms: C4_4  and  C11_11 
ROOT
HETATM    1  C1  UNL     1     -32.154   8.337   2.835  1.00 20.00     0.008 A 
HETATM    2  C2  UNL     1     -32.284   8.079   4.201  1.00 20.00     0.008 A 
HETATM    3  C3  UNL     1     -33.936   6.761   2.321  1.00 20.00     0.016 A 
HETATM    4  C4  UNL     1     -32.975   7.684   1.902  1.00 20.00    -0.053 A 
HETATM    5  C5  UNL     1     -33.247   7.172   4.609  1.00 20.00    -0.050 A 
HETATM    6  C6  UNL     1     -34.063   6.514   3.679  1.00 20.00    -0.033 A 
HETATM    7  C7  UNL     1     -33.549   6.714   6.002  1.00 20.00     0.041 C 
HETATM    8  C8  UNL     1     -34.939   6.085   5.809  1.00 20.00     0.030 C 
HETATM    9  C12 UNL     1     -34.992   5.560   4.363  1.00 20.00     0.116 C 
HETATM   10 CL13 UNL     1     -34.361   3.903   4.252  1.00 20.00    -0.120 Cl
ENDROOT
BRANCH   4  11
HETATM   11  C11 UNL     1     -32.816   7.975   0.449  1.00 20.00     0.018 A 
HETATM   12  C9  UNL     1     -32.915   9.401  -0.027  1.00 20.00     0.010 A 
HETATM   13  C10 UNL     1     -34.013   8.433  -0.343  1.00 20.00     0.010 A 
ENDBRANCH   4  11
TORSDOF 1
