REMARK  4 active torsions:
REMARK  status: ('A' for Active; 'I' for Inactive)
REMARK    1  A    between atoms: C4_4  and  O8_8 
REMARK    2  A    between atoms: C5_5  and  C6_6 
REMARK    3  A    between atoms: C5_5  and  O8_8 
REMARK    4  A    between atoms: C6_6  and  S9_9 
ROOT
HETATM    1  C1  UNL     1     -33.878   5.088   3.448  1.00 20.00     0.060 C 
HETATM    2  C2  UNL     1     -34.986   4.742   4.418  1.00 20.00     0.170 C 
HETATM    3  C3  UNL     1     -33.864   6.615   5.228  1.00 20.00     0.199 C 
HETATM    4  C4  UNL     1     -33.672   6.556   3.727  1.00 20.00     0.147 C 
HETATM    5  O7  UNL     1     -34.809   5.590   5.563  1.00 20.00    -0.389 OA
ENDROOT
BRANCH   4   6
HETATM    6  O8  UNL     1     -32.389   6.989   3.333  1.00 20.00    -0.383 OA
BRANCH   6   7
HETATM    7  C5  UNL     1     -32.327   7.226   1.934  1.00 20.00     0.178 C 
BRANCH   7   8
HETATM    8  C6  UNL     1     -33.005   8.545   1.598  1.00 20.00     0.097 C 
BRANCH   8   9
HETATM    9  S9  UNL     1     -32.941   8.888  -0.188  1.00 20.00    -0.180 SA
HETATM   10  H21 UNL     1     -33.593  10.056  -0.127  1.00 20.00     0.101 HD
ENDBRANCH   8   9
ENDBRANCH   7   8
ENDBRANCH   6   7
ENDBRANCH   4   6
TORSDOF 4
