REMARK  4 active torsions:
REMARK  status: ('A' for Active; 'I' for Inactive)
REMARK    1  A    between atoms: C4_4  and  C6_6 
REMARK    2  A    between atoms: C4_4  and  O7_7 
REMARK    3  A    between atoms: C5_5  and  C6_6 
REMARK    4  A    between atoms: C5_5  and  S8_8 
ROOT
HETATM    1  C1  UNL     1     -35.555   6.102   3.439  1.00 20.00     0.018 C 
HETATM    2  C2  UNL     1     -33.502   4.690   3.351  1.00 20.00     0.018 C 
HETATM    3  C6  UNL     1     -34.057   6.052   3.814  1.00 20.00    -0.018 C 
ENDROOT
BRANCH   3   4
HETATM    4  C4  UNL     1     -33.313   7.199   3.091  1.00 20.00     0.176 C 
BRANCH   4   5
HETATM    5  O7  UNL     1     -33.027   6.851   1.741  1.00 20.00    -0.395 OA
HETATM    6  C3  UNL     1     -32.820   8.006   0.940  1.00 20.00     0.201 C 
ENDBRANCH   4   5
ENDBRANCH   3   4
BRANCH   3   7
HETATM    7  C5  UNL     1     -33.957   6.203   5.356  1.00 20.00     0.081 C 
BRANCH   7   8
HETATM    8  S8  UNL     1     -34.846   4.961   6.350  1.00 20.00    -0.181 SA
HETATM    9  H22 UNL     1     -34.493   5.464   7.540  1.00 20.00     0.101 HD
ENDBRANCH   7   8
ENDBRANCH   3   7
TORSDOF 4
