REMARK  4 active torsions:
REMARK  status: ('A' for Active; 'I' for Inactive)
REMARK    1  A    between atoms: C3_3  and  C5_5 
REMARK    2  A    between atoms: C3_3  and  C6_6 
REMARK    3  A    between atoms: C5_5  and  S7_7 
REMARK    4  A    between atoms: C6_6  and  S8_8 
ROOT
HETATM    1  C1  UNL     1     -34.530   4.432   4.505  1.00 20.00     0.012 A 
HETATM    2  C2  UNL     1     -35.502   5.467   4.015  1.00 20.00     0.012 A 
HETATM    3  C3  UNL     1     -34.044   5.825   4.182  1.00 20.00    -0.024 A 
ENDROOT
BRANCH   3   4
HETATM    4  C5  UNL     1     -33.665   6.723   5.327  1.00 20.00     0.080 C 
BRANCH   4   5
HETATM    5  S7  UNL     1     -34.821   6.527   6.716  1.00 20.00    -0.181 SA
HETATM    6  H20 UNL     1     -34.226   7.419   7.519  1.00 20.00     0.101 HD
ENDBRANCH   4   5
ENDBRANCH   3   4
BRANCH   3   7
HETATM    7  C6  UNL     1     -33.217   6.013   2.939  1.00 20.00     0.083 C 
BRANCH   7   8
HETATM    8  S8  UNL     1     -33.219   7.754   2.415  1.00 20.00    -0.173 SA
HETATM    9  C4  UNL     1     -32.166   7.586   0.956  1.00 20.00     0.089 C 
ENDBRANCH   7   8
ENDBRANCH   3   7
TORSDOF 4
