REMARK  4 active torsions:
REMARK  status: ('A' for Active; 'I' for Inactive)
REMARK    1  A    between atoms: C1_1  and  C9_9 
REMARK    2  A    between atoms: C1_1  and  C10_10 
REMARK    3  A    between atoms: C7_7  and  C9_9 
REMARK    4  A    between atoms: C8_8  and  C9_9 
ROOT
HETATM    1  C1  UNL     1     -33.321   5.797   3.621  1.00 20.00     0.138 C 
HETATM    2  O11 UNL     1     -33.208   4.864   2.820  1.00 20.00    -0.297 OA
ENDROOT
BRANCH   1   3
HETATM    3  C9  UNL     1     -32.529   7.094   3.400  1.00 20.00     0.055 C 
BRANCH   3   4
HETATM    4  C7  UNL     1     -31.185   6.963   4.141  1.00 20.00     0.007 C 
HETATM    5  C2  UNL     1     -30.314   8.207   4.032  1.00 20.00     0.006 C 
ENDBRANCH   3   4
BRANCH   3   6
HETATM    6  C8  UNL     1     -32.324   7.357   1.896  1.00 20.00     0.007 C 
HETATM    7  C3  UNL     1     -33.632   7.490   1.128  1.00 20.00     0.006 C 
ENDBRANCH   3   6
ENDBRANCH   1   3
BRANCH   1   8
HETATM    8  C10 UNL     1     -34.238   5.685   4.861  1.00 20.00     0.010 C 
HETATM    9  C4  UNL     1     -34.184   6.972   5.693  1.00 20.00     0.022 C 
HETATM   10  C5  UNL     1     -35.680   5.399   4.420  1.00 20.00     0.022 C 
HETATM   11  C6  UNL     1     -33.760   4.518   5.745  1.00 20.00     0.022 C 
ENDBRANCH   1   8
TORSDOF 4
