REMARK  3 active torsions:
REMARK  status: ('A' for Active; 'I' for Inactive)
REMARK    1  A    between atoms: C4_4  and  C7_7 
REMARK    2  A    between atoms: C4_4  and  C9_9 
REMARK    3  A    between atoms: C8_8  and  C9_9 
ROOT
HETATM    1  C1  UNL     1     -33.386   4.953   2.139  1.00 20.00     0.002 C 
HETATM    2  C2  UNL     1     -32.387   6.018   2.632  1.00 20.00     0.011 C 
HETATM    3  C3  UNL     1     -34.403   6.087   1.907  1.00 20.00     0.011 C 
HETATM    4  C4  UNL     1     -33.598   6.952   2.921  1.00 20.00    -0.025 C 
ENDROOT
BRANCH   4   5
HETATM    5  C7  UNL     1     -33.389   8.396   2.476  1.00 20.00     0.124 C 
HETATM    6 CL10 UNL     1     -33.089   8.460   0.730  1.00 20.00    -0.130 Cl
ENDBRANCH   4   5
BRANCH   4   7
HETATM    7  C9  UNL     1     -34.118   6.879   4.357  1.00 20.00    -0.010 C 
HETATM    8  C6  UNL     1     -33.026   7.339   5.327  1.00 20.00     0.011 C 
BRANCH   7   9
HETATM    9  C8  UNL     1     -34.589   5.465   4.740  1.00 20.00     0.000 C 
HETATM   10  C5  UNL     1     -35.115   5.365   6.165  1.00 20.00     0.005 C 
ENDBRANCH   7   9
ENDBRANCH   4   7
TORSDOF 3
