REMARK  2 active torsions:
REMARK  status: ('A' for Active; 'I' for Inactive)
REMARK    1  A    between atoms: C4_4  and  C7_7 
REMARK    2  A    between atoms: C7_7  and  C8_8 
ROOT
HETATM    1  C1  UNL     1     -34.628   5.368   3.967  1.00 20.00     0.033 C 
HETATM    2  C2  UNL     1     -34.947   4.787   5.329  1.00 20.00     0.168 C 
HETATM    3  C3  UNL     1     -33.597   6.662   5.631  1.00 20.00     0.172 C 
HETATM    4  C4  UNL     1     -33.334   6.102   4.243  1.00 20.00     0.016 C 
HETATM    5  O9  UNL     1     -34.431   5.706   6.303  1.00 20.00    -0.391 OA
ENDROOT
BRANCH   4   6
HETATM    6  C7  UNL     1     -32.986   7.160   3.213  1.00 20.00     0.002 C 
HETATM    7  C5  UNL     1     -32.081   8.199   3.833  1.00 20.00     0.011 C 
BRANCH   6   8
HETATM    8  C8  UNL     1     -32.410   6.510   1.939  1.00 20.00     0.058 C 
HETATM    9  C6  UNL     1     -33.136   5.270   1.434  1.00 20.00     0.022 C 
HETATM   10 BR10 UNL     1     -32.346   7.828   0.480  1.00 20.00    -0.091 Br
ENDBRANCH   6   8
ENDBRANCH   4   6
TORSDOF 2
