REMARK  2 active torsions:
REMARK  status: ('A' for Active; 'I' for Inactive)
REMARK    1  A    between atoms: C3_3  and  C8_8 
REMARK    2  A    between atoms: C8_8  and  C9_9 
ROOT
HETATM    1  C1  UNL     1     -32.205   8.016   3.769  1.00 20.00     0.302 C 
HETATM    2  C2  UNL     1     -33.312   6.334   5.163  1.00 20.00     0.244 C 
HETATM    3  C3  UNL     1     -32.279   6.882   2.750  1.00 20.00     0.150 C 
HETATM    4  C4  UNL     1     -34.287   6.328   3.970  1.00 20.00     0.150 C 
HETATM    5  C5  UNL     1     -34.008   6.293   6.521  1.00 20.00     0.045 C 
HETATM    6  C6  UNL     1     -35.232   5.130   3.964  1.00 20.00     0.042 C 
HETATM    7  N10 UNL     1     -32.469   7.542   5.128  1.00 20.00     0.092 N 
HETATM    8  O11 UNL     1     -33.583   6.293   2.718  1.00 20.00    -0.377 OA
HETATM    9  H30 UNL     1     -31.571   7.347   5.597  1.00 20.00     0.316 HD
ENDROOT
BRANCH   3  10
HETATM   10  C8  UNL     1     -31.965   7.376   1.344  1.00 20.00     0.033 C 
BRANCH  10  11
HETATM   11  C9  UNL     1     -32.973   8.426   0.890  1.00 20.00    -0.002 C 
HETATM   12  C7  UNL     1     -32.645   8.939  -0.503  1.00 20.00     0.005 C 
ENDBRANCH  10  11
ENDBRANCH   3  10
TORSDOF 2
