REMARK  4 active torsions:
REMARK  status: ('A' for Active; 'I' for Inactive)
REMARK    1  A    between atoms: C2_2  and  C6_6 
REMARK    2  A    between atoms: C2_2  and  C7_7 
REMARK    3  A    between atoms: C7_7  and  C8_8 
REMARK    4  A    between atoms: C8_8  and  C9_9 
ROOT
HETATM    1  C7  UNL     1     -33.308   7.256   3.116  1.00 20.00     0.039 C 
ENDROOT
BRANCH   1   2
HETATM    2  C2  UNL     1     -32.297   7.708   2.080  1.00 20.00    -0.089 C 
HETATM    3  C1  UNL     1     -31.022   7.953   2.425  1.00 20.00     0.014 C 
BRANCH   2   4
HETATM    4  C6  UNL     1     -32.755   7.872   0.648  1.00 20.00     0.029 C 
HETATM    5  C3  UNL     1     -33.262   9.274   0.338  1.00 20.00     0.010 C 
ENDBRANCH   2   4
ENDBRANCH   1   2
BRANCH   1   6
HETATM    6  C8  UNL     1     -33.361   5.726   3.351  1.00 20.00     0.003 C 
HETATM    7  C4  UNL     1     -33.648   4.971   2.044  1.00 20.00     0.011 C 
BRANCH   6   8
HETATM    8  C9  UNL     1     -34.360   5.302   4.461  1.00 20.00     0.082 C 
HETATM    9  C5  UNL     1     -34.312   3.810   4.777  1.00 20.00     0.027 C 
HETATM   10 CL10 UNL     1     -34.136   6.224   5.981  1.00 20.00    -0.125 Cl
ENDBRANCH   6   8
ENDBRANCH   1   6
TORSDOF 4
