REMARK  5 active torsions:
REMARK  status: ('A' for Active; 'I' for Inactive)
REMARK    1  A    between atoms: C1_1  and  C7_7 
REMARK    2  A    between atoms: C1_1  and  C11_11 
REMARK    3  A    between atoms: C7_7  and  C10_10 
REMARK    4  A    between atoms: C8_8  and  C10_10 
REMARK    5  A    between atoms: C9_9  and  C10_10 
ROOT
HETATM    1  C1  UNL     1     -33.516   5.852   3.366  1.00 20.00     0.134 C 
HETATM    2  O12 UNL     1     -32.458   5.276   3.103  1.00 20.00    -0.297 OA
ENDROOT
BRANCH   1   3
HETATM    3  C7  UNL     1     -33.983   7.049   2.537  1.00 20.00     0.083 C 
BRANCH   3   4
HETATM    4  C10 UNL     1     -32.826   7.852   1.906  1.00 20.00    -0.008 C 
BRANCH   4   5
HETATM    5  C8  UNL     1     -32.128   8.728   2.969  1.00 20.00     0.000 C 
HETATM    6  C2  UNL     1     -31.572   7.975   4.169  1.00 20.00     0.005 C 
ENDBRANCH   4   5
BRANCH   4   7
HETATM    7  C9  UNL     1     -33.332   8.646   0.681  1.00 20.00     0.000 C 
HETATM    8  C3  UNL     1     -32.240   9.429  -0.034  1.00 20.00     0.005 C 
ENDBRANCH   4   7
ENDBRANCH   3   4
ENDBRANCH   1   3
BRANCH   1   9
HETATM    9  C11 UNL     1     -34.404   5.398   4.544  1.00 20.00     0.009 C 
HETATM   10  C4  UNL     1     -35.868   5.722   4.218  1.00 20.00     0.022 C 
HETATM   11  C5  UNL     1     -34.262   3.878   4.738  1.00 20.00     0.022 C 
HETATM   12  C6  UNL     1     -33.979   6.095   5.843  1.00 20.00     0.022 C 
ENDBRANCH   1   9
TORSDOF 5
