REMARK  4 active torsions:
REMARK  status: ('A' for Active; 'I' for Inactive)
REMARK    1  A    between atoms: C5_5  and  C8_8 
REMARK    2  A    between atoms: C6_6  and  C8_8 
REMARK    3  A    between atoms: C7_7  and  C8_8 
REMARK    4  A    between atoms: C7_7  and  S10_10 
ROOT
HETATM    1  C1  UNL     1     -32.649   7.125   1.742  1.00 20.00     0.074 C 
HETATM    2  C7  UNL     1     -32.738   7.071   3.215  1.00 20.00     0.157 C 
HETATM    3  N9  UNL     1     -32.577   7.160   0.585  1.00 20.00    -0.196 NA
ENDROOT
BRANCH   2   4
HETATM    4  C8  UNL     1     -34.175   6.691   3.685  1.00 20.00     0.012 C 
BRANCH   4   5
HETATM    5  C5  UNL     1     -34.477   7.162   5.134  1.00 20.00     0.002 C 
HETATM    6  C2  UNL     1     -33.588   6.510   6.186  1.00 20.00     0.005 C 
ENDBRANCH   4   5
BRANCH   4   7
HETATM    7  C6  UNL     1     -34.490   5.181   3.534  1.00 20.00     0.002 C 
HETATM    8  C3  UNL     1     -34.325   4.643   2.118  1.00 20.00     0.005 C 
ENDBRANCH   4   7
ENDBRANCH   2   4
BRANCH   2   9
HETATM    9  S10 UNL     1     -32.095   8.621   3.949  1.00 20.00    -0.154 SA
HETATM   10  C4  UNL     1     -30.335   8.236   3.835  1.00 20.00     0.091 C 
ENDBRANCH   2   9
TORSDOF 4
