REMARK  4 active torsions:
REMARK  status: ('A' for Active; 'I' for Inactive)
REMARK    1  A    between atoms: C2_2  and  C6_6 
REMARK    2  A    between atoms: C2_2  and  C7_7 
REMARK    3  A    between atoms: C7_7  and  C8_8 
REMARK    4  A    between atoms: C8_8  and  C9_9 
ROOT
HETATM    1  C7  UNL     1     -32.472   6.755   3.282  1.00 20.00     0.039 C 
ENDROOT
BRANCH   1   2
HETATM    2  C2  UNL     1     -32.461   7.586   2.013  1.00 20.00    -0.089 C 
HETATM    3  C1  UNL     1     -32.030   7.063   0.853  1.00 20.00     0.014 C 
BRANCH   2   4
HETATM    4  C6  UNL     1     -32.951   9.015   2.080  1.00 20.00     0.029 C 
HETATM    5  C3  UNL     1     -32.893   9.732   0.738  1.00 20.00     0.010 C 
ENDBRANCH   2   4
ENDBRANCH   1   2
BRANCH   1   6
HETATM    6  C8  UNL     1     -33.752   5.911   3.498  1.00 20.00     0.003 C 
HETATM    7  C4  UNL     1     -33.754   4.660   2.606  1.00 20.00     0.011 C 
BRANCH   6   8
HETATM    8  C9  UNL     1     -33.993   5.531   4.983  1.00 20.00     0.082 C 
HETATM    9  C5  UNL     1     -33.986   6.734   5.922  1.00 20.00     0.027 C 
HETATM   10 CL10 UNL     1     -35.515   4.616   5.223  1.00 20.00    -0.125 Cl
ENDBRANCH   6   8
ENDBRANCH   1   6
TORSDOF 4
