REMARK  3 active torsions:
REMARK  status: ('A' for Active; 'I' for Inactive)
REMARK    1  A    between atoms: C4_4  and  C10_10 
REMARK    2  A    between atoms: C8_8  and  C10_10 
REMARK    3  A    between atoms: C9_9  and  C10_10 
ROOT
HETATM    1  C1  UNL     1     -33.319   5.586   2.142  1.00 20.00     0.006 C 
HETATM    2  C2  UNL     1     -32.861   6.678   1.186  1.00 20.00     0.020 C 
HETATM    3  C3  UNL     1     -33.358   7.760   3.276  1.00 20.00     0.025 C 
HETATM    4  C4  UNL     1     -33.241   6.244   3.525  1.00 20.00    -0.009 C 
HETATM    5  C5  UNL     1     -33.537   7.909   1.767  1.00 20.00     0.082 C 
HETATM    6 CL11 UNL     1     -32.843   9.414   1.145  1.00 20.00    -0.125 Cl
ENDROOT
BRANCH   4   7
HETATM    7  C10 UNL     1     -34.301   5.715   4.480  1.00 20.00    -0.011 C 
BRANCH   7   8
HETATM    8  C8  UNL     1     -33.939   6.011   5.951  1.00 20.00     0.000 C 
HETATM    9  C6  UNL     1     -33.767   7.493   6.256  1.00 20.00     0.005 C 
ENDBRANCH   7   8
BRANCH   7  10
HETATM   10  C9  UNL     1     -34.510   4.196   4.310  1.00 20.00     0.000 C 
HETATM   11  C7  UNL     1     -33.266   3.367   4.597  1.00 20.00     0.005 C 
ENDBRANCH   7  10
ENDBRANCH   4   7
TORSDOF 3
