REMARK  4 active torsions:
REMARK  status: ('A' for Active; 'I' for Inactive)
REMARK    1  A    between atoms: C5_5  and  C6_6 
REMARK    2  A    between atoms: C6_6  and  C9_9 
REMARK    3  A    between atoms: C7_7  and  C9_9 
REMARK    4  A    between atoms: C8_8  and  C9_9 
ROOT
HETATM    1  C4  UNL     1     -32.063   7.608   4.119  1.00 20.00     0.016 C 
HETATM    2  C9  UNL     1     -33.146   6.661   3.526  1.00 20.00    -0.029 C 
ENDROOT
BRANCH   2   3
HETATM    3  C6  UNL     1     -33.774   7.450   2.326  1.00 20.00     0.010 C 
BRANCH   3   4
HETATM    4  C5  UNL     1     -32.835   7.928   1.216  1.00 20.00    -0.004 C 
HETATM    5  C1  UNL     1     -33.589   8.746   0.175  1.00 20.00     0.005 C 
ENDBRANCH   3   4
ENDBRANCH   2   3
BRANCH   2   6
HETATM    6  C7  UNL     1     -32.369   5.407   3.019  1.00 20.00     0.124 C 
HETATM    7 CL10 UNL     1     -33.223   4.391   1.832  1.00 20.00    -0.130 Cl
ENDBRANCH   2   6
BRANCH   2   8
HETATM    8  C8  UNL     1     -34.215   6.292   4.627  1.00 20.00    -0.014 C 
HETATM    9  C2  UNL     1     -35.296   5.312   4.142  1.00 20.00     0.010 C 
HETATM   10  C3  UNL     1     -34.920   7.509   5.249  1.00 20.00     0.010 C 
ENDBRANCH   2   8
TORSDOF 4
