REMARK  3 active torsions:
REMARK  status: ('A' for Active; 'I' for Inactive)
REMARK    1  A    between atoms: C1_1  and  C5_5 
REMARK    2  A    between atoms: C1_1  and  C8_8 
REMARK    3  A    between atoms: C8_8  and  C9_9 
ROOT
HETATM    1  C2  UNL     1     -34.429   4.309   5.128  1.00 20.00     0.029 C 
HETATM    2  C3  UNL     1     -33.527   4.697   3.981  1.00 20.00     0.048 C 
HETATM    3  C4  UNL     1     -34.572   5.616   5.871  1.00 20.00     0.169 C 
HETATM    4  C5  UNL     1     -33.959   6.128   3.681  1.00 20.00     0.117 C 
HETATM    5  C6  UNL     1     -34.959   6.227   2.537  1.00 20.00     0.054 C 
HETATM    6  O11 UNL     1     -34.573   6.644   4.872  1.00 20.00    -0.373 OA
ENDROOT
BRANCH   4   7
HETATM    7  C1  UNL     1     -32.770   7.003   3.415  1.00 20.00     0.160 C 
HETATM    8  O10 UNL     1     -32.209   7.605   4.329  1.00 20.00    -0.295 OA
BRANCH   7   9
HETATM    9  C8  UNL     1     -32.315   7.091   1.969  1.00 20.00     0.081 C 
BRANCH   9  10
HETATM   10  C9  UNL     1     -32.969   8.248   1.219  1.00 20.00     0.003 C 
HETATM   11  C7  UNL     1     -32.472   8.335  -0.214  1.00 20.00     0.005 C 
ENDBRANCH   9  10
ENDBRANCH   7   9
ENDBRANCH   4   7
TORSDOF 3
