REMARK  2 active torsions:
REMARK  status: ('A' for Active; 'I' for Inactive)
REMARK    1  A    between atoms: C5_5  and  C7_7 
REMARK    2  A    between atoms: C7_7  and  N8_8 
ROOT
HETATM    1  C1  UNL     1     -32.593   7.875   1.125  1.00 20.00     0.332 C 
HETATM    2  N8  UNL     1     -32.519   7.554   2.255  1.00 20.00    -0.245 NA
HETATM    3  O9  UNL     1     -32.667   8.198  -0.004  1.00 20.00    -0.260 OA
ENDROOT
BRANCH   2   4
HETATM    4  C7  UNL     1     -32.945   6.188   2.528  1.00 20.00     0.190 C 
BRANCH   4   5
HETATM    5  C5  UNL     1     -34.112   6.232   3.510  1.00 20.00     0.075 C 
HETATM    6  C3  UNL     1     -34.621   4.833   3.857  1.00 20.00     0.041 C 
HETATM    7  C2  UNL     1     -35.060   4.988   5.293  1.00 20.00     0.029 C 
HETATM    8  C4  UNL     1     -34.025   5.950   5.832  1.00 20.00     0.169 C 
HETATM    9  O10 UNL     1     -33.651   6.811   4.748  1.00 20.00    -0.379 OA
HETATM   10  C6  UNL     1     -35.228   7.128   2.965  1.00 20.00     0.048 C 
ENDBRANCH   4   5
ENDBRANCH   2   4
TORSDOF 2
