REMARK  2 active torsions:
REMARK  status: ('A' for Active; 'I' for Inactive)
REMARK    1  A    between atoms: C1_1  and  C6_6 
REMARK    2  A    between atoms: C1_1  and  C9_9 
ROOT
HETATM    1  C2  UNL     1     -33.968   4.477   6.092  1.00 20.00     0.005 C 
HETATM    2  C3  UNL     1     -34.310   5.965   6.249  1.00 20.00     0.006 C 
HETATM    3  C4  UNL     1     -33.868   4.729   3.603  1.00 20.00     0.017 C 
HETATM    4  C5  UNL     1     -35.912   4.977   4.810  1.00 20.00     0.010 C 
HETATM    5  C6  UNL     1     -34.218   6.222   3.716  1.00 20.00     0.061 C 
HETATM    6  C7  UNL     1     -34.658   4.103   4.769  1.00 20.00    -0.013 C 
HETATM    7  C8  UNL     1     -35.114   6.274   4.971  1.00 20.00    -0.003 C 
ENDROOT
BRANCH   5   8
HETATM    8  C1  UNL     1     -33.015   7.108   3.797  1.00 20.00     0.145 C 
HETATM    9  O10 UNL     1     -32.827   7.821   4.782  1.00 20.00    -0.296 OA
BRANCH   8  10
HETATM   10  C9  UNL     1     -32.082   7.059   2.609  1.00 20.00     0.193 C 
HETATM   11 CL11 UNL     1     -32.930   7.524   1.127  1.00 20.00    -0.123 Cl
ENDBRANCH   8  10
ENDBRANCH   5   8
TORSDOF 2
