REMARK  3 active torsions:
REMARK  status: ('A' for Active; 'I' for Inactive)
REMARK    1  A    between atoms: C3_3  and  C6_6 
REMARK    2  A    between atoms: C6_6  and  C7_7 
REMARK    3  A    between atoms: C6_6  and  O8_8 
ROOT
HETATM    1  C5  UNL     1     -35.628   6.052   3.344  1.00 20.00     0.056 C 
HETATM    2  C6  UNL     1     -34.195   5.929   3.827  1.00 20.00     0.158 C 
ENDROOT
BRANCH   2   3
HETATM    3  C3  UNL     1     -34.100   6.120   5.316  1.00 20.00    -0.004 A 
HETATM    4  C1  UNL     1     -34.566   7.437   5.893  1.00 20.00     0.013 A 
HETATM    5  C2  UNL     1     -33.098   7.123   5.839  1.00 20.00     0.013 A 
HETATM    6  C4  UNL     1     -34.337   4.873   6.123  1.00 20.00     0.018 C 
ENDBRANCH   2   3
BRANCH   2   7
HETATM    7  C7  UNL     1     -33.300   6.917   3.068  1.00 20.00     0.418 C 
HETATM    8  F9  UNL     1     -32.005   6.755   3.419  1.00 20.00    -0.168 F 
HETATM    9  F10 UNL     1     -33.629   8.204   3.316  1.00 20.00    -0.168 F 
HETATM   10  F11 UNL     1     -33.387   6.722   1.734  1.00 20.00    -0.168 F 
ENDBRANCH   2   7
BRANCH   2  11
HETATM   11  O8  UNL     1     -33.748   4.605   3.491  1.00 20.00    -0.380 OA
HETATM   12  H22 UNL     1     -34.335   4.000   3.963  1.00 20.00     0.211 HD
ENDBRANCH   2  11
TORSDOF 3
