REMARK  3 active torsions:
REMARK  status: ('A' for Active; 'I' for Inactive)
REMARK    1  A    between atoms: C1_1  and  C3_3 
REMARK    2  A    between atoms: C2_2  and  C8_8 
REMARK    3  A    between atoms: C8_8  and  C10_10 
ROOT
HETATM    1  C4  UNL     1     -35.693   4.531   4.832  1.00 20.00     0.002 C 
HETATM    2  C5  UNL     1     -34.592   3.537   4.461  1.00 20.00     0.002 C 
HETATM    3  C6  UNL     1     -35.341   5.840   4.126  1.00 20.00     0.022 C 
HETATM    4  C7  UNL     1     -33.627   4.292   3.547  1.00 20.00     0.022 C 
HETATM    5  C8  UNL     1     -33.827   5.773   3.892  1.00 20.00     0.024 C 
ENDROOT
BRANCH   5   6
HETATM    6  C2  UNL     1     -33.383   6.690   2.754  1.00 20.00    -0.085 C 
HETATM    7  C1  UNL     1     -33.034   7.411   1.860  1.00 20.00     0.005 C 
BRANCH   7   8
HETATM    8  C3  UNL     1     -32.586   8.337   0.712  1.00 20.00     0.258 C 
HETATM    9  O11 UNL     1     -33.307   9.356   0.510  1.00 20.00    -0.637 OA
HETATM   10  O12 UNL     1     -31.542   7.981   0.091  1.00 20.00    -0.637 OA
ENDBRANCH   7   8
ENDBRANCH   5   6
BRANCH   5  11
HETATM   11  C10 UNL     1     -33.089   6.129   5.123  1.00 20.00     0.018 C 
HETATM   12  C9  UNL     1     -33.344   7.544   5.529  1.00 20.00     0.007 C 
ENDBRANCH   5  11
TORSDOF 3
