REMARK  1 active torsions:
REMARK  status: ('A' for Active; 'I' for Inactive)
REMARK    1  A    between atoms: C4_4  and  C5_5 
ROOT
HETATM    1  C1  UNL     1     -35.872   5.579   3.977  1.00 20.00     0.013 A 
HETATM    2  C2  UNL     1     -35.032   4.521   4.633  1.00 20.00     0.013 A 
HETATM    3  C4  UNL     1     -34.449   5.891   4.378  1.00 20.00    -0.011 A 
HETATM    4  C6  UNL     1     -34.270   6.780   5.584  1.00 20.00     0.018 C 
ENDROOT
BRANCH   3   5
HETATM    5  C5  UNL     1     -33.368   6.083   3.307  1.00 20.00     0.086 A 
HETATM    6  C3  UNL     1     -33.179   7.402   2.608  1.00 20.00     0.207 A 
HETATM    7  O8  UNL     1     -32.319   6.981   3.679  1.00 20.00    -0.375 OA
HETATM    8  C7  UNL     1     -32.880   4.840   2.636  1.00 20.00     0.049 C 
ENDBRANCH   3   5
TORSDOF 1
