REMARK  3 active torsions:
REMARK  status: ('A' for Active; 'I' for Inactive)
REMARK    1  A    between atoms: C4_4  and  C9_9 
REMARK    2  A    between atoms: C8_8  and  C9_9 
REMARK    3  A    between atoms: C9_9  and  O11_11 
ROOT
HETATM    1  C1  UNL     1     -33.793   5.051   4.721  1.00 20.00     0.066 C 
HETATM    2  C6  UNL     1     -33.423   4.811   2.320  1.00 20.00     0.028 C 
HETATM    3  C8  UNL     1     -32.885   5.435   3.616  1.00 20.00     0.123 C 
HETATM    4  N10 UNL     1     -34.501   4.753   5.591  1.00 20.00    -0.197 NA
ENDROOT
BRANCH   3   5
HETATM    5  C9  UNL     1     -32.704   6.981   3.528  1.00 20.00     0.077 C 
HETATM    6  C7  UNL     1     -34.032   7.674   3.290  1.00 20.00     0.048 C 
BRANCH   5   7
HETATM    7  C4  UNL     1     -31.731   7.378   2.402  1.00 20.00    -0.012 A 
HETATM    8  C2  UNL     1     -31.898   8.739   1.768  1.00 20.00     0.013 A 
HETATM    9  C3  UNL     1     -32.283   7.506   1.002  1.00 20.00     0.013 A 
HETATM   10  C5  UNL     1     -30.335   6.841   2.563  1.00 20.00     0.018 C 
ENDBRANCH   5   7
BRANCH   5  11
HETATM   11  O11 UNL     1     -32.166   7.458   4.766  1.00 20.00    -0.388 OA
HETATM   12  H26 UNL     1     -32.796   7.195   5.453  1.00 20.00     0.210 HD
ENDBRANCH   5  11
ENDBRANCH   3   5
TORSDOF 3
