REMARK  2 active torsions:
REMARK  status: ('A' for Active; 'I' for Inactive)
REMARK    1  A    between atoms: C1_1  and  C4_4 
REMARK    2  A    between atoms: C1_1  and  C6_6 
ROOT
HETATM    1  C2  UNL     1     -34.617   4.704   5.053  1.00 20.00     0.018 A 
HETATM    2  C3  UNL     1     -35.588   5.773   4.653  1.00 20.00     0.018 A 
HETATM    3  C4  UNL     1     -34.100   6.037   4.552  1.00 20.00     0.018 A 
HETATM    4  C5  UNL     1     -33.498   6.967   5.576  1.00 20.00     0.023 C 
ENDROOT
BRANCH   3   5
HETATM    5  C1  UNL     1     -33.513   6.061   3.191  1.00 20.00     0.148 C 
HETATM    6  O7  UNL     1     -33.457   5.036   2.514  1.00 20.00    -0.296 OA
BRANCH   5   7
HETATM    7  C6  UNL     1     -33.003   7.404   2.720  1.00 20.00     0.193 C 
HETATM    8 CL8  UNL     1     -32.319   7.278   1.092  1.00 20.00    -0.123 Cl
ENDBRANCH   5   7
ENDBRANCH   3   5
TORSDOF 2
