REMARK  4 active torsions:
REMARK  status: ('A' for Active; 'I' for Inactive)
REMARK    1  A    between atoms: C3_3  and  C10_10 
REMARK    2  A    between atoms: C8_8  and  C9_9 
REMARK    3  A    between atoms: C9_9  and  C10_10 
REMARK    4  A    between atoms: C10_10  and  O11_11 
ROOT
HETATM    1  C7  UNL     1     -32.730   7.319   5.165  1.00 20.00     0.047 C 
HETATM    2  C10 UNL     1     -32.866   6.739   3.772  1.00 20.00     0.065 C 
ENDROOT
BRANCH   2   3
HETATM    3  C3  UNL     1     -33.855   5.568   3.792  1.00 20.00    -0.013 A 
HETATM    4  C1  UNL     1     -35.272   5.845   4.237  1.00 20.00     0.013 A 
HETATM    5  C2  UNL     1     -34.345   5.077   5.135  1.00 20.00     0.013 A 
HETATM    6  C4  UNL     1     -33.644   4.551   2.704  1.00 20.00     0.018 C 
ENDBRANCH   2   3
BRANCH   2   7
HETATM    7  C9  UNL     1     -33.227   7.839   2.717  1.00 20.00     0.016 C 
HETATM    8  C6  UNL     1     -32.857   9.249   3.210  1.00 20.00     0.013 C 
BRANCH   7   9
HETATM    9  C8  UNL     1     -32.617   7.568   1.322  1.00 20.00     0.002 C 
HETATM   10  C5  UNL     1     -33.000   8.607   0.274  1.00 20.00     0.005 C 
ENDBRANCH   7   9
ENDBRANCH   2   7
BRANCH   2  11
HETATM   11  O11 UNL     1     -31.590   6.179   3.426  1.00 20.00    -0.389 OA
HETATM   12  H31 UNL     1     -30.969   6.920   3.414  1.00 20.00     0.210 HD
ENDBRANCH   2  11
TORSDOF 4
