REMARK  3 active torsions:
REMARK  status: ('A' for Active; 'I' for Inactive)
REMARK    1  A    between atoms: C5_5  and  C7_7 
REMARK    2  A    between atoms: C5_5  and  O9_9 
REMARK    3  A    between atoms: C6_6  and  C7_7 
ROOT
HETATM    1  C1  UNL     1     -33.652   7.044   4.335  1.00 20.00     0.088 C 
HETATM    2  C7  UNL     1     -33.011   6.914   3.007  1.00 20.00     0.149 C 
HETATM    3  N8  UNL     1     -34.159   7.149   5.374  1.00 20.00    -0.195 NA
HETATM    4 CL10 UNL     1     -31.282   7.371   3.233  1.00 20.00    -0.100 Cl
ENDROOT
BRANCH   2   5
HETATM    5  C5  UNL     1     -33.659   7.919   2.032  1.00 20.00     0.208 C 
BRANCH   5   6
HETATM    6  O9  UNL     1     -32.818   8.164   0.907  1.00 20.00    -0.393 OA
HETATM    7  C4  UNL     1     -33.389   9.127   0.034  1.00 20.00     0.201 C 
ENDBRANCH   5   6
ENDBRANCH   2   5
BRANCH   2   8
HETATM    8  C6  UNL     1     -33.142   5.443   2.490  1.00 20.00     0.017 C 
HETATM    9  C2  UNL     1     -32.551   5.221   1.089  1.00 20.00     0.012 C 
HETATM   10  C3  UNL     1     -32.539   4.394   3.443  1.00 20.00     0.012 C 
ENDBRANCH   2   8
TORSDOF 3
