REMARK  3 active torsions:
REMARK  status: ('A' for Active; 'I' for Inactive)
REMARK    1  A    between atoms: C3_3  and  C6_6 
REMARK    2  A    between atoms: C5_5  and  C6_6 
REMARK    3  A    between atoms: C5_5  and  O7_7 
ROOT
HETATM    1  C6  UNL     1     -34.061   6.010   3.620  1.00 20.00     0.110 C 
HETATM    2 CL8  UNL     1     -33.795   4.362   2.938  1.00 20.00    -0.122 Cl
ENDROOT
BRANCH   1   3
HETATM    3  C3  UNL     1     -34.740   5.913   4.941  1.00 20.00     0.006 A 
HETATM    4  C1  UNL     1     -34.053   5.246   6.100  1.00 20.00     0.006 A 
HETATM    5  C2  UNL     1     -34.256   6.735   6.104  1.00 20.00     0.006 A 
ENDBRANCH   1   3
BRANCH   1   6
HETATM    6  C5  UNL     1     -32.707   6.736   3.702  1.00 20.00     0.187 C 
BRANCH   6   7
HETATM    7  O7  UNL     1     -32.108   6.833   2.416  1.00 20.00    -0.394 OA
HETATM    8  C4  UNL     1     -32.709   7.857   1.637  1.00 20.00     0.201 C 
ENDBRANCH   6   7
ENDBRANCH   1   6
TORSDOF 3
