REMARK  4 active torsions:
REMARK  status: ('A' for Active; 'I' for Inactive)
REMARK    1  A    between atoms: C2_2  and  C6_6 
REMARK    2  A    between atoms: C6_6  and  O10_10 
REMARK    3  A    between atoms: C7_7  and  C8_8 
REMARK    4  A    between atoms: C8_8  and  O10_10 
ROOT
HETATM    1  C5  UNL     1     -32.791   4.792   3.650  1.00 20.00     0.040 C 
HETATM    2  C8  UNL     1     -33.478   6.140   3.458  1.00 20.00     0.120 C 
ENDROOT
BRANCH   2   3
HETATM    3  C7  UNL     1     -34.349   6.563   4.659  1.00 20.00     0.006 C 
HETATM    4  C3  UNL     1     -33.555   6.625   5.965  1.00 20.00     0.012 C 
HETATM    5  C4  UNL     1     -35.540   5.612   4.831  1.00 20.00     0.012 C 
ENDBRANCH   2   3
BRANCH   2   6
HETATM    6  O10 UNL     1     -32.462   7.125   3.261  1.00 20.00    -0.383 OA
BRANCH   6   7
HETATM    7  C6  UNL     1     -31.982   7.110   1.926  1.00 20.00     0.202 C 
BRANCH   7   8
HETATM    8  C2  UNL     1     -32.956   7.861   1.044  1.00 20.00     0.169 A 
HETATM    9  C1  UNL     1     -32.534   8.409  -0.291  1.00 20.00     0.202 A 
HETATM   10  O9  UNL     1     -32.652   9.249   0.869  1.00 20.00    -0.379 OA
ENDBRANCH   7   8
ENDBRANCH   6   7
ENDBRANCH   2   6
TORSDOF 4
