REMARK  1 active torsions:
REMARK  status: ('A' for Active; 'I' for Inactive)
REMARK    1  A    between atoms: C6_6  and  O8_8 
ROOT
HETATM    1  C1  UNL     1     -32.082   7.234   1.951  1.00 20.00     0.002 C 
HETATM    2  C2  UNL     1     -33.581   7.523   2.223  1.00 20.00     0.010 C 
HETATM    3  C3  UNL     1     -31.891   7.054   3.480  1.00 20.00     0.010 C 
HETATM    4  C4  UNL     1     -34.161   7.300   4.751  1.00 20.00     0.041 C 
HETATM    5  C5  UNL     1     -33.907   5.422   3.710  1.00 20.00     0.041 C 
HETATM    6  C6  UNL     1     -35.044   6.032   4.577  1.00 20.00     0.119 C 
HETATM    7  C7  UNL     1     -33.380   6.830   3.554  1.00 20.00    -0.036 C 
ENDROOT
BRANCH   6   8
HETATM    8  O8  UNL     1     -35.365   5.324   5.786  1.00 20.00    -0.396 OA
HETATM    9  H20 UNL     1     -35.910   4.573   5.515  1.00 20.00     0.210 HD
ENDBRANCH   6   8
TORSDOF 1
