REMARK  5 active torsions:
REMARK  status: ('A' for Active; 'I' for Inactive)
REMARK    1  A    between atoms: C4_4  and  C5_5 
REMARK    2  A    between atoms: C4_4  and  O8_8 
REMARK    3  A    between atoms: C5_5  and  S9_9 
REMARK    4  A    between atoms: C6_6  and  C7_7 
REMARK    5  A    between atoms: C7_7  and  O8_8 
ROOT
HETATM    1  C3  UNL     1     -34.188   4.753   3.114  1.00 20.00     0.040 C 
HETATM    2  C7  UNL     1     -33.679   5.806   4.093  1.00 20.00     0.120 C 
ENDROOT
BRANCH   2   3
HETATM    3  C6  UNL     1     -34.696   6.165   5.196  1.00 20.00     0.006 C 
HETATM    4  C1  UNL     1     -34.189   7.272   6.123  1.00 20.00     0.012 C 
HETATM    5  C2  UNL     1     -35.056   4.928   6.030  1.00 20.00     0.012 C 
ENDBRANCH   2   3
BRANCH   2   6
HETATM    6  O8  UNL     1     -33.380   6.989   3.348  1.00 20.00    -0.385 OA
BRANCH   6   7
HETATM    7  C4  UNL     1     -32.119   6.887   2.706  1.00 20.00     0.178 C 
BRANCH   7   8
HETATM    8  C5  UNL     1     -31.829   8.158   1.923  1.00 20.00     0.097 C 
BRANCH   8   9
HETATM    9  S9  UNL     1     -33.089   8.453   0.645  1.00 20.00    -0.180 SA
HETATM   10  H25 UNL     1     -32.549   9.587   0.178  1.00 20.00     0.101 HD
ENDBRANCH   8   9
ENDBRANCH   7   8
ENDBRANCH   6   7
ENDBRANCH   2   6
TORSDOF 5
