REMARK  4 active torsions:
REMARK  status: ('A' for Active; 'I' for Inactive)
REMARK    1  A    between atoms: C4_4  and  C7_7 
REMARK    2  A    between atoms: C4_4  and  C8_8 
REMARK    3  A    between atoms: C7_7  and  C9_9 
REMARK    4  A    between atoms: C8_8  and  C10_10 
ROOT
HETATM    1  C1  UNL     1     -33.076   4.808   2.618  1.00 20.00     0.128 C 
HETATM    2  C2  UNL     1     -32.291   5.985   3.224  1.00 20.00     0.088 C 
HETATM    3  C3  UNL     1     -34.231   5.726   2.180  1.00 20.00     0.088 C 
HETATM    4  C4  UNL     1     -33.601   6.829   3.093  1.00 20.00    -0.027 C 
HETATM    5  O11 UNL     1     -32.869   3.616   2.529  1.00 20.00    -0.298 OA
ENDROOT
BRANCH   4   6
HETATM    6  C7  UNL     1     -34.340   7.001   4.421  1.00 20.00     0.010 C 
BRANCH   6   7
HETATM    7  C9  UNL     1     -34.346   5.702   5.219  1.00 20.00    -0.004 C 
HETATM    8  C5  UNL     1     -35.058   5.879   6.550  1.00 20.00     0.005 C 
ENDBRANCH   6   7
ENDBRANCH   4   6
BRANCH   4   9
HETATM    9  C8  UNL     1     -33.399   8.166   2.387  1.00 20.00     0.010 C 
BRANCH   9  10
HETATM   10  C10 UNL     1     -32.834   7.972   0.983  1.00 20.00    -0.004 C 
HETATM   11  C6  UNL     1     -32.658   9.302   0.269  1.00 20.00     0.005 C 
ENDBRANCH   9  10
ENDBRANCH   4   9
TORSDOF 4
