REMARK  3 active torsions:
REMARK  status: ('A' for Active; 'I' for Inactive)
REMARK    1  A    between atoms: C3_3  and  C6_6 
REMARK    2  A    between atoms: C4_4  and  O8_8 
REMARK    3  A    between atoms: C6_6  and  C7_7 
ROOT
HETATM    1  C1  UNL     1     -33.575   6.846   5.919  1.00 20.00     0.036 C 
HETATM    2  C2  UNL     1     -34.515   6.058   4.174  1.00 20.00     0.036 C 
HETATM    3  C3  UNL     1     -33.516   7.215   4.417  1.00 20.00    -0.010 C 
HETATM    4  C4  UNL     1     -34.959   6.214   5.648  1.00 20.00     0.118 C 
ENDROOT
BRANCH   3   5
HETATM    5  C6  UNL     1     -32.166   7.097   3.741  1.00 20.00     0.004 C 
BRANCH   5   6
HETATM    6  C7  UNL     1     -32.303   6.960   2.224  1.00 20.00    -0.004 C 
HETATM    7  C5  UNL     1     -33.033   8.147   1.617  1.00 20.00     0.005 C 
ENDBRANCH   5   6
ENDBRANCH   3   5
BRANCH   4   8
HETATM    8  O8  UNL     1     -35.243   4.996   6.356  1.00 20.00    -0.396 OA
HETATM    9  H22 UNL     1     -36.131   4.732   6.083  1.00 20.00     0.210 HD
ENDBRANCH   4   8
TORSDOF 3
