REMARK  3 active torsions:
REMARK  status: ('A' for Active; 'I' for Inactive)
REMARK    1  A    between atoms: C3_3  and  C6_6 
REMARK    2  A    between atoms: C5_5  and  C6_6 
REMARK    3  A    between atoms: C5_5  and  O7_7 
ROOT
HETATM    1  C6  UNL     1     -33.223   6.781   3.828  1.00 20.00     0.110 C 
HETATM    2 CL8  UNL     1     -33.830   5.432   2.797  1.00 20.00    -0.122 Cl
ENDROOT
BRANCH   1   3
HETATM    3  C3  UNL     1     -34.139   6.998   4.982  1.00 20.00     0.006 A 
HETATM    4  C1  UNL     1     -34.812   5.829   5.646  1.00 20.00     0.006 A 
HETATM    5  C2  UNL     1     -33.726   6.578   6.365  1.00 20.00     0.006 A 
ENDBRANCH   1   3
BRANCH   1   6
HETATM    6  C5  UNL     1     -33.070   8.033   2.948  1.00 20.00     0.187 C 
BRANCH   6   7
HETATM    7  O7  UNL     1     -32.620   7.682   1.645  1.00 20.00    -0.394 OA
HETATM    8  C4  UNL     1     -32.956   8.680   0.692  1.00 20.00     0.201 C 
ENDBRANCH   6   7
ENDBRANCH   1   6
TORSDOF 3
