REMARK  3 active torsions:
REMARK  status: ('A' for Active; 'I' for Inactive)
REMARK    1  A    between atoms: C4_4  and  C7_7 
REMARK    2  A    between atoms: C6_6  and  C7_7 
REMARK    3  A    between atoms: C6_6  and  O9_9 
ROOT
HETATM    1  C1  UNL     1     -33.105   5.316   2.594  1.00 20.00     0.066 C 
HETATM    2  C7  UNL     1     -32.775   6.597   3.239  1.00 20.00     0.120 C 
HETATM    3  N8  UNL     1     -33.360   4.306   2.082  1.00 20.00    -0.197 NA
ENDROOT
BRANCH   2   4
HETATM    4  C4  UNL     1     -33.561   6.603   4.520  1.00 20.00     0.005 A 
HETATM    5  C2  UNL     1     -34.928   5.979   4.574  1.00 20.00     0.006 A 
HETATM    6  C3  UNL     1     -33.775   5.325   5.282  1.00 20.00     0.006 A 
ENDBRANCH   2   4
BRANCH   2   7
HETATM    7  C6  UNL     1     -33.093   7.792   2.342  1.00 20.00     0.186 C 
BRANCH   7   8
HETATM    8  O9  UNL     1     -32.361   7.727   1.123  1.00 20.00    -0.395 OA
HETATM    9  C5  UNL     1     -32.630   8.849   0.295  1.00 20.00     0.201 C 
ENDBRANCH   7   8
ENDBRANCH   2   7
TORSDOF 3
