REMARK  0 active torsions:
REMARK  status: ('A' for Active; 'I' for Inactive)
ROOT
HETATM    1  C1  UNL     1     -33.489   6.630   4.879  1.00 20.00     0.005 C 
HETATM    2  C2  UNL     1     -33.006   7.300   3.697  1.00 20.00     0.041 C 
HETATM    3  C3  UNL     1     -34.201   5.492   4.804  1.00 20.00    -0.081 C 
HETATM    4  C4  UNL     1     -33.049   6.704   2.499  1.00 20.00     0.128 C 
HETATM    5  C5  UNL     1     -34.508   4.850   3.468  1.00 20.00     0.078 C 
HETATM    6  C6  UNL     1     -33.610   5.328   2.313  1.00 20.00     0.235 C 
HETATM    7  C7  UNL     1     -34.752   4.810   6.020  1.00 20.00     0.043 C 
HETATM    8  F8  UNL     1     -32.572   7.366   1.422  1.00 20.00    -0.208 F 
HETATM    9  F9  UNL     1     -32.578   4.441   2.191  1.00 20.00    -0.242 F 
ENDROOT
TORSDOF 0
