REMARK  4 active torsions:
REMARK  status: ('A' for Active; 'I' for Inactive)
REMARK    1  A    between atoms: C2_2  and  C7_7 
REMARK    2  A    between atoms: C7_7  and  O11_11 
REMARK    3  A    between atoms: C8_8  and  C9_9 
REMARK    4  A    between atoms: C9_9  and  O11_11 
ROOT
HETATM    1  O11 UNL     1     -33.035   7.369   2.393  1.00 20.00    -0.383 OA
ENDROOT
BRANCH   1   2
HETATM    2  C7  UNL     1     -32.515   7.074   1.106  1.00 20.00     0.208 C 
BRANCH   2   3
HETATM    3  C2  UNL     1     -32.536   8.334   0.267  1.00 20.00     0.100 A 
HETATM    4  C1  UNL     1     -33.823   8.768  -0.393  1.00 20.00     0.208 A 
HETATM    5  O10 UNL     1     -33.348   9.381   0.815  1.00 20.00    -0.373 OA
HETATM    6  C3  UNL     1     -31.230   8.809  -0.283  1.00 20.00     0.050 C 
ENDBRANCH   2   3
ENDBRANCH   1   2
BRANCH   1   7
HETATM    7  C9  UNL     1     -33.468   6.182   3.060  1.00 20.00     0.120 C 
HETATM    8  C6  UNL     1     -32.263   5.257   3.200  1.00 20.00     0.040 C 
BRANCH   7   9
HETATM    9  C8  UNL     1     -34.098   6.578   4.412  1.00 20.00     0.006 C 
HETATM   10  C4  UNL     1     -33.096   7.254   5.350  1.00 20.00     0.012 C 
HETATM   11  C5  UNL     1     -34.705   5.355   5.111  1.00 20.00     0.012 C 
ENDBRANCH   7   9
ENDBRANCH   1   7
TORSDOF 4
