REMARK  0 active torsions:
REMARK  status: ('A' for Active; 'I' for Inactive)
ROOT
HETATM    1  C1  UNL     1     -32.961   7.872   1.673  1.00 20.00     0.128 C 
HETATM    2  C2  UNL     1     -34.238   7.386   2.376  1.00 20.00     0.088 C 
HETATM    3  C3  UNL     1     -32.117   6.760   2.313  1.00 20.00     0.088 C 
HETATM    4  C4  UNL     1     -34.252   5.727   6.312  1.00 20.00     0.000 C 
HETATM    5  C5  UNL     1     -35.096   4.724   5.533  1.00 20.00     0.000 C 
HETATM    6  C6  UNL     1     -34.133   7.110   5.679  1.00 20.00     0.001 C 
HETATM    7  C7  UNL     1     -35.058   4.816   4.011  1.00 20.00     0.001 C 
HETATM    8  C8  UNL     1     -32.993   7.193   4.666  1.00 20.00     0.010 C 
HETATM    9  C9  UNL     1     -33.673   5.041   3.411  1.00 20.00     0.010 C 
HETATM   10  C10 UNL     1     -33.310   6.530   3.315  1.00 20.00    -0.027 C 
HETATM   11  O11 UNL     1     -32.714   8.786   0.916  1.00 20.00    -0.298 OA
ENDROOT
TORSDOF 0
