REMARK  3 active torsions:
REMARK  status: ('A' for Active; 'I' for Inactive)
REMARK    1  A    between atoms: C1_1  and  C7_7 
REMARK    2  A    between atoms: C2_2  and  C3_3 
REMARK    3  A    between atoms: C3_3  and  C10_10 
ROOT
HETATM    1  C1  UNL     1     -32.659   7.278   3.410  1.00 20.00    -0.012 C 
HETATM    2  C3  UNL     1     -33.545   6.554   4.117  1.00 20.00    -0.020 C 
ENDROOT
BRANCH   2   3
HETATM    3  C2  UNL     1     -33.452   6.759   5.592  1.00 20.00     0.265 C 
HETATM    4  O11 UNL     1     -34.170   6.192   6.407  1.00 20.00    -0.302 OA
ENDBRANCH   2   3
BRANCH   2   5
HETATM    5  C10 UNL     1     -34.576   5.597   3.548  1.00 20.00     0.013 C 
HETATM    6  C8  UNL     1     -36.009   6.045   3.847  1.00 20.00     0.015 C 
HETATM    7  C9  UNL     1     -34.340   4.155   4.003  1.00 20.00     0.015 C 
ENDBRANCH   2   5
BRANCH   1   8
HETATM    8  C7  UNL     1     -32.586   7.221   1.939  1.00 20.00     0.009 C 
HETATM    9  C5  UNL     1     -33.773   7.868   1.181  1.00 20.00     0.008 C 
HETATM   10  C4  UNL     1     -32.744   8.362   0.144  1.00 20.00     0.001 C 
HETATM   11  C6  UNL     1     -31.690   8.292   1.268  1.00 20.00     0.008 C 
ENDBRANCH   1   8
TORSDOF 3
