REMARK  2 active torsions:
REMARK  status: ('A' for Active; 'I' for Inactive)
REMARK    1  A    between atoms: C6_6  and  C8_8 
REMARK    2  A    between atoms: C7_7  and  C9_9 
ROOT
HETATM    1  C4  UNL     1     -33.772   4.621   3.271  1.00 20.00     0.034 C 
HETATM    2  C5  UNL     1     -33.093   4.300   1.958  1.00 20.00     0.168 C 
HETATM    3  C7  UNL     1     -33.543   6.114   3.375  1.00 20.00     0.031 C 
HETATM    4  C8  UNL     1     -33.709   6.552   1.921  1.00 20.00     0.130 C 
HETATM    5  O10 UNL     1     -33.296   5.437   1.108  1.00 20.00    -0.385 OA
ENDROOT
BRANCH   4   6
HETATM    6  C6  UNL     1     -32.840   7.752   1.586  1.00 20.00     0.015 C 
HETATM    7  C2  UNL     1     -33.426   9.150   1.918  1.00 20.00     0.007 C 
HETATM    8  C1  UNL     1     -32.752   9.656   0.625  1.00 20.00     0.001 C 
HETATM    9  C3  UNL     1     -32.824   8.206   0.104  1.00 20.00     0.007 C 
ENDBRANCH   4   6
BRANCH   3  10
HETATM   10  C9  UNL     1     -34.491   6.810   4.337  1.00 20.00     0.121 C 
HETATM   11 CL11 UNL     1     -34.314   6.139   5.971  1.00 20.00    -0.130 Cl
ENDBRANCH   3  10
TORSDOF 2
