REMARK  4 active torsions:
REMARK  status: ('A' for Active; 'I' for Inactive)
REMARK    1  A    between atoms: C2_2  and  C8_8 
REMARK    2  A    between atoms: C3_3  and  C8_8 
REMARK    3  A    between atoms: C3_3  and  C9_9 
REMARK    4  A    between atoms: C6_6  and  C9_9 
ROOT
HETATM    1  C1  UNL     1     -33.044   8.225  -0.446  1.00 20.00    -0.111 C 
HETATM    2  C2  UNL     1     -32.607   7.848   0.608  1.00 20.00    -0.100 C 
HETATM    3  C7  UNL     1     -33.577   8.683  -1.728  1.00 20.00     0.112 C 
ENDROOT
BRANCH   2   4
HETATM    4  C8  UNL     1     -32.068   7.392   1.894  1.00 20.00     0.172 C 
BRANCH   4   5
HETATM    5  C3  UNL     1     -33.021   6.467   2.630  1.00 20.00     0.138 C 
HETATM    6  O10 UNL     1     -33.425   5.411   2.145  1.00 20.00    -0.297 OA
BRANCH   5   7
HETATM    7  C9  UNL     1     -33.445   6.932   4.012  1.00 20.00     0.083 C 
BRANCH   7   8
HETATM    8  C6  UNL     1     -34.408   6.010   4.690  1.00 20.00    -0.007 A 
HETATM    9  C4  UNL     1     -33.902   4.886   5.552  1.00 20.00     0.005 A 
HETATM   10  C5  UNL     1     -34.588   6.067   6.182  1.00 20.00     0.005 A 
ENDBRANCH   7   8
ENDBRANCH   5   7
ENDBRANCH   4   5
ENDBRANCH   2   4
TORSDOF 4
