REMARK  3 active torsions:
REMARK  status: ('A' for Active; 'I' for Inactive)
REMARK    1  A    between atoms: C1_1  and  C6_6 
REMARK    2  A    between atoms: C2_2  and  C8_8 
REMARK    3  A    between atoms: C2_2  and  C9_9 
ROOT
HETATM    1  C1  UNL     1     -33.283   6.359   2.241  1.00 20.00    -0.018 C 
HETATM    2  C2  UNL     1     -33.803   6.168   3.469  1.00 20.00    -0.070 C 
ENDROOT
BRANCH   1   3
HETATM    3  C6  UNL     1     -32.281   7.410   1.950  1.00 20.00     0.008 C 
HETATM    4  C4  UNL     1     -31.982   7.646   0.448  1.00 20.00     0.008 C 
HETATM    5  C3  UNL     1     -33.019   8.786   0.468  1.00 20.00     0.001 C 
HETATM    6  C5  UNL     1     -32.811   8.865   1.993  1.00 20.00     0.008 C 
ENDBRANCH   1   3
BRANCH   2   7
HETATM    7  C8  UNL     1     -33.357   7.055   4.615  1.00 20.00     0.030 C 
HETATM    8  C7  UNL     1     -34.043   6.702   5.927  1.00 20.00     0.010 C 
ENDBRANCH   2   7
BRANCH   2   9
HETATM    9  C9  UNL     1     -34.819   5.106   3.800  1.00 20.00     0.148 C 
HETATM   10 CL10 UNL     1     -34.008   3.601   4.291  1.00 20.00    -0.126 Cl
ENDBRANCH   2   9
TORSDOF 3
