REMARK  1 active torsions:
REMARK  status: ('A' for Active; 'I' for Inactive)
REMARK    1  A    between atoms: C8_8  and  C9_9 
ROOT
HETATM    1  C1  UNL     1     -34.340   4.103   4.169  1.00 20.00     0.074 C 
HETATM    2  C2  UNL     1     -33.804   4.137   2.944  1.00 20.00     0.139 C 
HETATM    3  C3  UNL     1     -34.525   5.388   4.875  1.00 20.00     0.153 C 
HETATM    4  C4  UNL     1     -34.205   6.639   4.097  1.00 20.00     0.116 C 
HETATM    5  C9  UNL     1     -33.041   6.348   3.155  1.00 20.00     0.139 C 
HETATM    6  O10 UNL     1     -34.987   5.417   6.012  1.00 20.00    -0.293 OA
HETATM    7  O11 UNL     1     -33.318   5.239   2.289  1.00 20.00    -0.357 OA
ENDROOT
BRANCH   5   8
HETATM    8  C8  UNL     1     -32.770   7.556   2.284  1.00 20.00     0.015 C 
HETATM    9  C6  UNL     1     -33.837   7.893   1.210  1.00 20.00     0.007 C 
HETATM   10  C5  UNL     1     -32.672   8.308   0.288  1.00 20.00     0.001 C 
HETATM   11  C7  UNL     1     -31.777   7.357   1.109  1.00 20.00     0.007 C 
ENDBRANCH   5   8
TORSDOF 1
