REMARK  3 active torsions:
REMARK  status: ('A' for Active; 'I' for Inactive)
REMARK    1  A    between atoms: C1_1  and  C6_6 
REMARK    2  A    between atoms: C1_1  and  O8_8 
REMARK    3  A    between atoms: C4_4  and  C6_6 
ROOT
HETATM    1  C1  UNL     1     -33.173   6.374   2.687  1.00 20.00     0.132 C 
HETATM    2  N7  UNL     1     -33.707   5.406   2.020  1.00 20.00    -0.282 NA
HETATM    3  H19 UNL     1     -33.397   5.435   1.043  1.00 20.00     0.189 HD
ENDROOT
BRANCH   1   4
HETATM    4  C6  UNL     1     -32.246   7.387   2.080  1.00 20.00     0.090 C 
BRANCH   4   5
HETATM    5  C4  UNL     1     -32.976   8.593   1.583  1.00 20.00    -0.007 A 
HETATM    6  C2  UNL     1     -32.335   9.503   0.572  1.00 20.00     0.005 A 
HETATM    7  C3  UNL     1     -33.495   8.635   0.172  1.00 20.00     0.005 A 
ENDBRANCH   4   5
ENDBRANCH   1   4
BRANCH   1   8
HETATM    8  O8  UNL     1     -33.403   6.614   4.004  1.00 20.00    -0.343 OA
HETATM    9  C5  UNL     1     -34.276   5.709   4.693  1.00 20.00     0.211 C 
ENDBRANCH   1   8
TORSDOF 3
