REMARK  3 active torsions:
REMARK  status: ('A' for Active; 'I' for Inactive)
REMARK    1  A    between atoms: C5_5  and  C8_8 
REMARK    2  A    between atoms: C6_6  and  C8_8 
REMARK    3  A    between atoms: C8_8  and  O9_9 
ROOT
HETATM    1  C8  UNL     1     -33.267   6.435   4.521  1.00 20.00     0.130 C 
ENDROOT
BRANCH   1   2
HETATM    2  C5  UNL     1     -33.564   7.010   3.137  1.00 20.00     0.015 A 
HETATM    3  C1  UNL     1     -32.439   7.358   2.203  1.00 20.00     0.007 A 
HETATM    4  C2  UNL     1     -33.325   6.180   1.906  1.00 20.00     0.007 A 
ENDBRANCH   1   2
BRANCH   1   5
HETATM    5  C6  UNL     1     -34.466   5.769   5.137  1.00 20.00    -0.018 A 
HETATM    6  C3  UNL     1     -34.653   4.288   4.900  1.00 20.00     0.012 A 
HETATM    7  C4  UNL     1     -35.554   5.275   4.213  1.00 20.00     0.012 A 
HETATM    8  C7  UNL     1     -34.874   6.326   6.473  1.00 20.00     0.018 C 
ENDBRANCH   1   5
BRANCH   1   9
HETATM    9  O9  UNL     1     -32.814   7.496   5.367  1.00 20.00    -0.394 OA
HETATM   10  H23 UNL     1     -32.636   7.096   6.231  1.00 20.00     0.210 HD
ENDBRANCH   1   9
TORSDOF 3
