REMARK  3 active torsions:
REMARK  status: ('A' for Active; 'I' for Inactive)
REMARK    1  A    between atoms: C3_3  and  C8_8 
REMARK    2  A    between atoms: C8_8  and  C9_9 
REMARK    3  A    between atoms: C8_8  and  O10_10 
ROOT
HETATM    1  C8  UNL     1     -34.608   6.043   4.276  1.00 20.00     0.133 C 
ENDROOT
BRANCH   1   2
HETATM    2  C3  UNL     1     -33.877   5.485   3.057  1.00 20.00    -0.017 A 
HETATM    3  C1  UNL     1     -32.908   6.393   2.335  1.00 20.00     0.012 A 
HETATM    4  C2  UNL     1     -34.227   6.052   1.701  1.00 20.00     0.012 A 
HETATM    5  C4  UNL     1     -33.540   4.022   3.145  1.00 20.00     0.018 C 
ENDBRANCH   1   2
BRANCH   1   6
HETATM    6  C9  UNL     1     -33.699   6.480   5.465  1.00 20.00    -0.025 C 
HETATM    7  C5  UNL     1     -34.555   6.999   6.635  1.00 20.00     0.017 C 
HETATM    8  C6  UNL     1     -32.893   5.260   5.960  1.00 20.00     0.017 C 
HETATM    9  C7  UNL     1     -32.697   7.578   5.061  1.00 20.00     0.017 C 
ENDBRANCH   1   6
BRANCH   1  10
HETATM   10  O10 UNL     1     -35.562   5.068   4.702  1.00 20.00    -0.394 OA
HETATM   11  H28 UNL     1     -35.057   4.271   4.921  1.00 20.00     0.210 HD
ENDBRANCH   1  10
TORSDOF 3
