REMARK  2 active torsions:
REMARK  status: ('A' for Active; 'I' for Inactive)
REMARK    1  A    between atoms: C6_6  and  C8_8 
REMARK    2  A    between atoms: C7_7  and  C9_9 
ROOT
HETATM    1  C4  UNL     1     -34.653   4.600   4.036  1.00 20.00     0.034 C 
HETATM    2  C5  UNL     1     -33.622   3.731   3.342  1.00 20.00     0.168 C 
HETATM    3  C7  UNL     1     -34.151   6.006   3.759  1.00 20.00     0.031 C 
HETATM    4  C8  UNL     1     -33.623   5.832   2.335  1.00 20.00     0.130 C 
HETATM    5  O10 UNL     1     -33.087   4.500   2.255  1.00 20.00    -0.385 OA
ENDROOT
BRANCH   4   6
HETATM    6  C6  UNL     1     -32.563   6.834   1.919  1.00 20.00     0.015 C 
HETATM    7  C2  UNL     1     -32.992   8.324   1.876  1.00 20.00     0.007 C 
HETATM    8  C1  UNL     1     -32.088   8.473   0.635  1.00 20.00     0.001 C 
HETATM    9  C3  UNL     1     -32.285   6.961   0.399  1.00 20.00     0.007 C 
ENDBRANCH   4   6
BRANCH   3  10
HETATM   10  C9  UNL     1     -33.103   6.422   4.794  1.00 20.00     0.121 C 
HETATM   11 CL11 UNL     1     -33.891   6.953   6.294  1.00 20.00    -0.130 Cl
ENDBRANCH   3  10
TORSDOF 2
