REMARK  6 active torsions:
REMARK  status: ('A' for Active; 'I' for Inactive)
REMARK    1  A    between atoms: C5_5  and  C10_10 
REMARK    2  A    between atoms: C6_6  and  C7_7 
REMARK    3  A    between atoms: C6_6  and  C10_10 
REMARK    4  A    between atoms: C7_7  and  C11_11 
REMARK    5  A    between atoms: C8_8  and  C9_9 
REMARK    6  A    between atoms: C8_8  and  C11_11 
ROOT
HETATM    1  C7  UNL     1     -33.746   7.542   3.566  1.00 20.00     0.020 C 
ENDROOT
BRANCH   1   2
HETATM    2  C6  UNL     1     -33.387   6.049   3.643  1.00 20.00     0.005 C 
BRANCH   2   3
HETATM    3  C10 UNL     1     -34.577   5.162   4.065  1.00 20.00    -0.019 C 
HETATM    4  C4  UNL     1     -35.129   5.556   5.438  1.00 20.00     0.010 C 
BRANCH   3   5
HETATM    5  C5  UNL     1     -34.215   3.663   4.012  1.00 20.00    -0.000 C 
HETATM    6  C1  UNL     1     -33.104   3.225   4.955  1.00 20.00     0.005 C 
ENDBRANCH   3   5
ENDBRANCH   2   3
ENDBRANCH   1   2
BRANCH   1   7
HETATM    7  C11 UNL     1     -32.560   8.436   3.170  1.00 20.00     0.082 C 
HETATM    8 CL12 UNL     1     -31.079   7.947   4.067  1.00 20.00    -0.125 Cl
BRANCH   7   9
HETATM    9  C8  UNL     1     -32.232   8.378   1.667  1.00 20.00     0.024 C 
BRANCH   9  10
HETATM   10  C9  UNL     1     -33.091   9.277   0.754  1.00 20.00    -0.021 C 
HETATM   11  C2  UNL     1     -34.579   8.937   0.831  1.00 20.00     0.009 C 
HETATM   12  C3  UNL     1     -32.606   9.154  -0.694  1.00 20.00     0.009 C 
ENDBRANCH   9  10
ENDBRANCH   7   9
ENDBRANCH   1   7
TORSDOF 6
