REMARK  3 active torsions:
REMARK  status: ('A' for Active; 'I' for Inactive)
REMARK    1  A    between atoms: C3_3  and  C7_7 
REMARK    2  A    between atoms: C3_3  and  C8_8 
REMARK    3  A    between atoms: C6_6  and  C8_8 
ROOT
HETATM    1  C1  UNL     1     -33.363   9.305   0.995  1.00 20.00     0.012 C 
HETATM    2  C2  UNL     1     -32.836   8.403   1.587  1.00 20.00    -0.110 C 
HETATM    3  C7  UNL     1     -32.184   7.304   2.309  1.00 20.00     0.171 C 
ENDROOT
BRANCH   3   4
HETATM    4  C3  UNL     1     -33.169   6.254   2.786  1.00 20.00     0.138 C 
HETATM    5  O9  UNL     1     -33.463   5.267   2.111  1.00 20.00    -0.297 OA
BRANCH   4   6
HETATM    6  C8  UNL     1     -33.774   6.501   4.157  1.00 20.00     0.083 C 
BRANCH   6   7
HETATM    7  C6  UNL     1     -34.764   5.460   4.577  1.00 20.00    -0.007 A 
HETATM    8  C4  UNL     1     -34.308   4.240   5.328  1.00 20.00     0.005 A 
HETATM    9  C5  UNL     1     -35.119   5.295   6.028  1.00 20.00     0.005 A 
ENDBRANCH   6   7
ENDBRANCH   4   6
ENDBRANCH   3   4
TORSDOF 3
