REMARK  1 active torsions:
REMARK  status: ('A' for Active; 'I' for Inactive)
REMARK    1  A    between atoms: C3_3  and  C7_7 
ROOT
HETATM    1  C1  UNL     1     -32.854   7.857   1.696  1.00 20.00     0.087 C 
HETATM    2  C2  UNL     1     -33.007   6.750   2.573  1.00 20.00     0.090 C 
HETATM    3  C3  UNL     1     -33.352   6.914   3.857  1.00 20.00    -0.011 C 
HETATM    4  N8  UNL     1     -32.728   8.758   0.976  1.00 20.00    -0.192 NA
ENDROOT
BRANCH   3   5
HETATM    5  C7  UNL     1     -33.523   5.800   4.805  1.00 20.00     0.009 C 
HETATM    6  C5  UNL     1     -34.164   6.169   6.168  1.00 20.00     0.008 C 
HETATM    7  C4  UNL     1     -34.902   4.816   6.103  1.00 20.00     0.001 C 
HETATM    8  C6  UNL     1     -34.763   4.900   4.569  1.00 20.00     0.008 C 
ENDBRANCH   3   5
TORSDOF 1
