REMARK  4 active torsions:
REMARK  status: ('A' for Active; 'I' for Inactive)
REMARK    1  A    between atoms: C1_1  and  C4_4 
REMARK    2  A    between atoms: C1_1  and  C9_9 
REMARK    3  A    between atoms: C9_9  and  C10_10 
REMARK    4  A    between atoms: C10_10  and  C11_11 
ROOT
HETATM    1  C1  UNL     1     -33.503   6.468   4.118  1.00 20.00     0.135 C 
HETATM    2  O12 UNL     1     -33.347   6.695   5.311  1.00 20.00    -0.297 OA
ENDROOT
BRANCH   1   3
HETATM    3  C4  UNL     1     -34.491   5.440   3.678  1.00 20.00     0.017 A 
HETATM    4  C2  UNL     1     -34.266   4.030   4.170  1.00 20.00     0.018 A 
HETATM    5  C3  UNL     1     -33.982   4.371   2.739  1.00 20.00     0.018 A 
HETATM    6  C5  UNL     1     -35.913   5.898   3.506  1.00 20.00     0.023 C 
ENDBRANCH   1   3
BRANCH   1   7
HETATM    7  C9  UNL     1     -32.754   7.166   3.001  1.00 20.00     0.080 C 
BRANCH   7   8
HETATM    8  C10 UNL     1     -33.703   7.876   2.032  1.00 20.00     0.015 C 
BRANCH   8   9
HETATM    9  C11 UNL     1     -33.031   8.564   0.814  1.00 20.00    -0.051 C 
HETATM   10  C6  UNL     1     -32.747  10.032   1.188  1.00 20.00     0.014 C 
HETATM   11  C7  UNL     1     -33.955   8.543  -0.415  1.00 20.00     0.014 C 
HETATM   12  C8  UNL     1     -31.698   7.885   0.457  1.00 20.00     0.014 C 
ENDBRANCH   8   9
ENDBRANCH   7   8
ENDBRANCH   1   7
TORSDOF 4
