REMARK  5 active torsions:
REMARK  status: ('A' for Active; 'I' for Inactive)
REMARK    1  A    between atoms: C2_2  and  C8_8 
REMARK    2  A    between atoms: C2_2  and  C9_9 
REMARK    3  A    between atoms: C3_3  and  C8_8 
REMARK    4  A    between atoms: C3_3  and  C10_10 
REMARK    5  A    between atoms: C6_6  and  C10_10 
ROOT
HETATM    1  C3  UNL     1     -33.330   6.147   2.718  1.00 20.00     0.131 C 
HETATM    2  O11 UNL     1     -33.767   5.171   2.111  1.00 20.00    -0.298 OA
ENDROOT
BRANCH   1   3
HETATM    3  C8  UNL     1     -32.326   7.115   2.101  1.00 20.00     0.111 C 
BRANCH   3   4
HETATM    4  C2  UNL     1     -32.830   7.696   0.805  1.00 20.00    -0.083 C 
HETATM    5  C1  UNL     1     -32.578   7.094  -0.369  1.00 20.00     0.014 C 
BRANCH   4   6
HETATM    6  C9  UNL     1     -33.625   8.980   0.869  1.00 20.00     0.029 C 
HETATM    7  C7  UNL     1     -32.746  10.219   0.770  1.00 20.00     0.010 C 
ENDBRANCH   4   6
ENDBRANCH   3   4
ENDBRANCH   1   3
BRANCH   1   8
HETATM    8  C10 UNL     1     -33.789   6.493   4.123  1.00 20.00     0.083 C 
BRANCH   8   9
HETATM    9  C6  UNL     1     -34.794   5.538   4.682  1.00 20.00    -0.008 A 
HETATM   10  C4  UNL     1     -34.343   4.326   5.451  1.00 20.00     0.005 A 
HETATM   11  C5  UNL     1     -35.021   5.461   6.167  1.00 20.00     0.005 A 
ENDBRANCH   8   9
ENDBRANCH   1   8
TORSDOF 5
