REMARK  2 active torsions:
REMARK  status: ('A' for Active; 'I' for Inactive)
REMARK    1  A    between atoms: C1_1  and  C3_3 
REMARK       I    between atoms: C3_3  and  N7_7 
REMARK    2  A    between atoms: N7_7  and  O9_9 
ROOT
HETATM    1  C3  UNL     1     -33.200   5.687   2.937  1.00 20.00     0.266 C 
HETATM    2  C5  UNL     1     -34.201   4.037   4.520  1.00 20.00     0.189 C 
HETATM    3  N7  UNL     1     -33.935   5.389   4.061  1.00 20.00    -0.228 N 
HETATM    4  O8  UNL     1     -32.696   4.829   2.212  1.00 20.00    -0.266 OA
ENDROOT
BRANCH   1   5
HETATM    5  C1  UNL     1     -33.028   7.138   2.626  1.00 20.00     0.072 C 
HETATM    6  C2  UNL     1     -32.326   7.519   1.549  1.00 20.00    -0.025 C 
HETATM    7  C4  UNL     1     -32.112   8.948   1.171  1.00 20.00     0.036 C 
ENDBRANCH   1   5
BRANCH   3   8
HETATM    8  O9  UNL     1     -34.516   6.359   4.899  1.00 20.00    -0.281 OA
HETATM    9  C6  UNL     1     -33.583   6.709   5.917  1.00 20.00     0.238 C 
ENDBRANCH   3   8
TORSDOF 2
