REMARK  3 active torsions:
REMARK  status: ('A' for Active; 'I' for Inactive)
REMARK    1  A    between atoms: C5_5  and  C8_8 
REMARK    2  A    between atoms: C7_7  and  C8_8 
REMARK    3  A    between atoms: C8_8  and  O9_9 
ROOT
HETATM    1  C1  UNL     1     -32.577   7.989   1.855  1.00 20.00     0.012 C 
HETATM    2  C2  UNL     1     -32.808   6.921   2.351  1.00 20.00    -0.115 C 
HETATM    3  C7  UNL     1     -33.089   5.609   2.958  1.00 20.00     0.125 C 
ENDROOT
BRANCH   3   4
HETATM    4  C8  UNL     1     -34.315   5.652   3.884  1.00 20.00     0.137 C 
BRANCH   4   5
HETATM    5  C5  UNL     1     -33.961   6.149   5.259  1.00 20.00    -0.017 A 
HETATM    6  C3  UNL     1     -33.485   5.140   6.277  1.00 20.00     0.012 A 
HETATM    7  C4  UNL     1     -34.853   5.746   6.410  1.00 20.00     0.012 A 
HETATM    8  C6  UNL     1     -33.350   7.523   5.288  1.00 20.00     0.018 C 
ENDBRANCH   4   5
BRANCH   4   9
HETATM    9  O9  UNL     1     -34.843   4.323   3.984  1.00 20.00    -0.394 OA
HETATM   10  H21 UNL     1     -35.053   4.050   3.080  1.00 20.00     0.210 HD
ENDBRANCH   4   9
ENDBRANCH   3   4
TORSDOF 3
