REMARK  3 active torsions:
REMARK  status: ('A' for Active; 'I' for Inactive)
REMARK    1  A    between atoms: C1_1  and  C7_7 
REMARK    2  A    between atoms: C2_2  and  C3_3 
REMARK    3  A    between atoms: C3_3  and  C9_9 
ROOT
HETATM    1  C1  UNL     1     -32.714   6.038   2.307  1.00 20.00    -0.012 C 
HETATM    2  C3  UNL     1     -33.490   5.959   3.404  1.00 20.00    -0.024 C 
ENDROOT
BRANCH   1   3
HETATM    3  C7  UNL     1     -32.122   7.257   1.728  1.00 20.00     0.009 C 
HETATM    4  C5  UNL     1     -32.142   7.344   0.181  1.00 20.00     0.008 C 
HETATM    5  C4  UNL     1     -32.429   8.851   0.344  1.00 20.00     0.001 C 
HETATM    6  C6  UNL     1     -33.034   8.510   1.721  1.00 20.00     0.008 C 
ENDBRANCH   1   3
BRANCH   2   7
HETATM    7  C2  UNL     1     -33.971   4.601   3.774  1.00 20.00     0.265 C 
HETATM    8  O10 UNL     1     -35.035   4.401   4.347  1.00 20.00    -0.302 OA
ENDBRANCH   2   7
BRANCH   2   9
HETATM    9  C9  UNL     1     -33.930   7.124   4.246  1.00 20.00     0.037 C 
HETATM   10  C8  UNL     1     -32.947   7.421   5.370  1.00 20.00     0.010 C 
ENDBRANCH   2   9
TORSDOF 3
