REMARK  4 active torsions:
REMARK  status: ('A' for Active; 'I' for Inactive)
REMARK    1  A    between atoms: C3_3  and  C7_7 
REMARK    2  A    between atoms: C6_6  and  C7_7 
REMARK    3  A    between atoms: C6_6  and  O9_9 
REMARK    4  A    between atoms: C7_7  and  C8_8 
ROOT
HETATM    1  C7  UNL     1     -33.266   6.139   3.882  1.00 20.00     0.032 C 
ENDROOT
BRANCH   1   2
HETATM    2  C3  UNL     1     -33.870   5.055   3.015  1.00 20.00    -0.007 A 
HETATM    3  C1  UNL     1     -32.995   4.229   2.113  1.00 20.00     0.005 A 
HETATM    4  C2  UNL     1     -33.619   3.606   3.330  1.00 20.00     0.005 A 
ENDBRANCH   1   2
BRANCH   1   5
HETATM    5  C6  UNL     1     -34.344   6.776   4.776  1.00 20.00     0.173 C 
BRANCH   5   6
HETATM    6  O9  UNL     1     -35.215   5.761   5.264  1.00 20.00    -0.396 OA
HETATM    7  C5  UNL     1     -34.665   5.105   6.397  1.00 20.00     0.201 C 
ENDBRANCH   5   6
ENDBRANCH   1   5
BRANCH   1   8
HETATM    8  C8  UNL     1     -32.504   7.220   3.076  1.00 20.00     0.084 C 
HETATM    9  C4  UNL     1     -33.189   7.604   1.768  1.00 20.00     0.027 C 
HETATM   10 CL10 UNL     1     -32.204   8.702   4.039  1.00 20.00    -0.125 Cl
ENDBRANCH   1   8
TORSDOF 4
