REMARK  2 active torsions:
REMARK  status: ('A' for Active; 'I' for Inactive)
REMARK    1  A    between atoms: C7_7  and  C9_9 
REMARK    2  A    between atoms: C9_9  and  O11_11 
ROOT
HETATM    1  C1  UNL     1     -32.846   8.190   0.531  1.00 20.00     0.010 A 
HETATM    2  C2  UNL     1     -31.982   8.265   3.007  1.00 20.00     0.012 C 
HETATM    3  C3  UNL     1     -33.006   6.194   2.225  1.00 20.00     0.012 C 
HETATM    4  C5  UNL     1     -33.008   8.611   1.965  1.00 20.00    -0.010 A 
HETATM    5  C6  UNL     1     -33.637   7.340   1.485  1.00 20.00    -0.010 A 
HETATM    6  C7  UNL     1     -32.363   6.844   3.468  1.00 20.00     0.021 C 
ENDROOT
BRANCH   6   7
HETATM    7  C9  UNL     1     -33.322   6.879   4.631  1.00 20.00     0.065 A 
HETATM    8  C4  UNL     1     -34.797   6.938   4.367  1.00 20.00     0.045 A 
HETATM    9  C8  UNL     1     -34.179   5.679   4.917  1.00 20.00     0.019 A 
HETATM   10  C10 UNL     1     -34.467   5.254   6.317  1.00 20.00     0.013 C 
BRANCH   7  11
HETATM   11  O11 UNL     1     -32.835   7.644   5.739  1.00 20.00    -0.389 OA
HETATM   12  H27 UNL     1     -31.879   7.497   5.769  1.00 20.00     0.210 HD
ENDBRANCH   7  11
ENDBRANCH   6   7
TORSDOF 2
