REMARK  3 active torsions:
REMARK  status: ('A' for Active; 'I' for Inactive)
REMARK    1  A    between atoms: C3_3  and  C7_7 
REMARK    2  A    between atoms: C6_6  and  C7_7 
REMARK    3  A    between atoms: C7_7  and  O8_8 
ROOT
HETATM    1  C7  UNL     1     -34.993   5.700   3.991  1.00 20.00     0.126 C 
ENDROOT
BRANCH   1   2
HETATM    2  C3  UNL     1     -34.124   6.302   5.061  1.00 20.00    -0.018 A 
HETATM    3  C1  UNL     1     -33.207   5.380   5.831  1.00 20.00     0.012 A 
HETATM    4  C2  UNL     1     -34.426   5.950   6.499  1.00 20.00     0.012 A 
HETATM    5  C4  UNL     1     -33.638   7.693   4.763  1.00 20.00     0.018 C 
ENDBRANCH   1   2
BRANCH   1   6
HETATM    6  C6  UNL     1     -34.161   4.982   2.916  1.00 20.00     0.028 C 
HETATM    7  C5  UNL     1     -33.229   5.920   2.162  1.00 20.00     0.007 C 
ENDBRANCH   1   6
BRANCH   1   8
HETATM    8  O8  UNL     1     -35.889   4.752   4.578  1.00 20.00    -0.395 OA
HETATM    9  H22 UNL     1     -35.334   4.077   4.995  1.00 20.00     0.210 HD
ENDBRANCH   1   8
TORSDOF 3
