REMARK  2 active torsions:
REMARK  status: ('A' for Active; 'I' for Inactive)
REMARK    1  A    between atoms: C1_1  and  C5_5 
REMARK    2  A    between atoms: C1_1  and  C8_8 
ROOT
HETATM    1  C2  UNL     1     -33.569   7.004   5.502  1.00 20.00     0.017 C 
HETATM    2  C3  UNL     1     -34.660   5.642   3.792  1.00 20.00     0.017 C 
HETATM    3  C4  UNL     1     -34.391   4.605   6.193  1.00 20.00     0.010 A 
HETATM    4  C5  UNL     1     -33.361   6.407   4.099  1.00 20.00     0.057 C 
HETATM    5  C6  UNL     1     -34.561   6.101   6.173  1.00 20.00    -0.009 A 
HETATM    6  C7  UNL     1     -35.226   5.270   5.131  1.00 20.00    -0.009 A 
ENDROOT
BRANCH   4   7
HETATM    7  C1  UNL     1     -33.081   7.463   3.079  1.00 20.00     0.144 C 
HETATM    8  O9  UNL     1     -33.019   8.648   3.405  1.00 20.00    -0.296 OA
BRANCH   7   9
HETATM    9  C8  UNL     1     -32.888   6.972   1.662  1.00 20.00     0.193 C 
HETATM   10 CL10 UNL     1     -32.582   8.328   0.567  1.00 20.00    -0.123 Cl
ENDBRANCH   7   9
ENDBRANCH   4   7
TORSDOF 2
