REMARK  3 active torsions:
REMARK  status: ('A' for Active; 'I' for Inactive)
REMARK    1  A    between atoms: C1_1  and  C4_4 
REMARK    2  A    between atoms: C1_1  and  C7_7 
REMARK    3  A    between atoms: C7_7  and  O9_9 
ROOT
HETATM    1  C1  UNL     1     -33.437   5.892   2.916  1.00 20.00     0.158 C 
HETATM    2  O8  UNL     1     -33.009   5.000   2.185  1.00 20.00    -0.295 OA
ENDROOT
BRANCH   1   3
HETATM    3  C4  UNL     1     -34.022   5.585   4.244  1.00 20.00     0.019 A 
HETATM    4  C2  UNL     1     -34.067   4.128   4.654  1.00 20.00     0.018 A 
HETATM    5  C3  UNL     1     -35.332   4.825   4.257  1.00 20.00     0.018 A 
HETATM    6  C5  UNL     1     -33.807   6.600   5.339  1.00 20.00     0.023 C 
ENDBRANCH   1   3
BRANCH   1   7
HETATM    7  C7  UNL     1     -33.399   7.353   2.521  1.00 20.00     0.246 C 
BRANCH   7   8
HETATM    8  O9  UNL     1     -32.833   7.508   1.237  1.00 20.00    -0.389 OA
HETATM    9  C6  UNL     1     -32.785   8.875   0.839  1.00 20.00     0.202 C 
ENDBRANCH   7   8
ENDBRANCH   1   7
TORSDOF 3
