REMARK  2 active torsions:
REMARK  status: ('A' for Active; 'I' for Inactive)
REMARK    1  A    between atoms: C5_5  and  C8_8 
REMARK    2  A    between atoms: C5_5  and  O9_9 
ROOT
HETATM    1  C1  UNL     1     -33.512   6.952   6.165  1.00 20.00     0.004 C 
HETATM    2  C2  UNL     1     -34.708   6.014   5.991  1.00 20.00     0.012 C 
HETATM    3  C3  UNL     1     -32.767   6.971   4.826  1.00 20.00     0.044 C 
HETATM    4  C4  UNL     1     -34.393   5.170   4.739  1.00 20.00    -0.011 C 
HETATM    5  C5  UNL     1     -33.671   6.213   3.843  1.00 20.00     0.123 C 
HETATM    6  C6  UNL     1     -35.688   4.623   4.120  1.00 20.00     0.018 C 
HETATM    7  C7  UNL     1     -33.498   3.976   5.127  1.00 20.00     0.018 C 
ENDROOT
BRANCH   5   8
HETATM    8  C8  UNL     1     -32.896   5.645   2.658  1.00 20.00     0.388 C 
HETATM    9  F10 UNL     1     -32.336   6.665   1.975  1.00 20.00    -0.211 F 
HETATM   10  F11 UNL     1     -33.763   5.027   1.828  1.00 20.00    -0.211 F 
ENDBRANCH   5   8
BRANCH   5  11
HETATM   11  O9  UNL     1     -34.633   7.142   3.328  1.00 20.00    -0.383 OA
HETATM   12  H25 UNL     1     -35.126   7.469   4.093  1.00 20.00     0.210 HD
ENDBRANCH   5  11
TORSDOF 2
