REMARK  1 active torsions:
REMARK  status: ('A' for Active; 'I' for Inactive)
REMARK    1  A    between atoms: C4_4  and  C7_7 
ROOT
HETATM    1  C1  UNL     1     -34.148   4.932   6.298  1.00 20.00     0.040 C 
HETATM    2  C2  UNL     1     -34.627   4.207   5.042  1.00 20.00     0.272 C 
HETATM    3  C3  UNL     1     -34.222   6.449   6.184  1.00 20.00     0.078 C 
HETATM    4  C4  UNL     1     -33.868   5.951   3.465  1.00 20.00     0.201 C 
HETATM    5  C5  UNL     1     -35.271   6.400   3.026  1.00 20.00     0.061 C 
HETATM    6  N8  UNL     1     -33.833   4.534   3.859  1.00 20.00     0.102 N 
HETATM    7  S9  UNL     1     -33.235   7.060   4.788  1.00 20.00    -0.128 SA
HETATM    8  H24 UNL     1     -32.866   4.253   4.024  1.00 20.00     0.317 HD
ENDROOT
BRANCH   4   9
HETATM    9  C7  UNL     1     -32.913   6.106   2.268  1.00 20.00     0.048 C 
HETATM   10  C6  UNL     1     -32.850   7.521   1.805  1.00 20.00     0.009 C 
ENDBRANCH   4   9
TORSDOF 1
