REMARK  3 active torsions:
REMARK  status: ('A' for Active; 'I' for Inactive)
REMARK    1  A    between atoms: C3_3  and  N7_7 
REMARK    2  A    between atoms: C4_4  and  C5_5 
REMARK    3  A    between atoms: C4_4  and  N7_7 
ROOT
HETATM    1  C1  UNL     1     -32.850   8.300   1.766  1.00 20.00     0.089 C 
HETATM    2  C3  UNL     1     -33.071   7.930   3.163  1.00 20.00     0.395 C 
HETATM    3  N6  UNL     1     -32.674   8.596   0.659  1.00 20.00    -0.195 NA
ENDROOT
BRANCH   2   4
HETATM    4  N7  UNL     1     -33.576   6.561   3.267  1.00 20.00     0.099 N 
HETATM    5  C2  UNL     1     -32.619   5.618   2.689  1.00 20.00     0.311 C 
BRANCH   4   6
HETATM    6  C4  UNL     1     -33.849   6.221   4.663  1.00 20.00     0.304 C 
BRANCH   6   7
HETATM    7  C5  UNL     1     -34.870   5.109   4.773  1.00 20.00     0.252 C 
HETATM    8  F8  UNL     1     -34.395   4.007   4.131  1.00 20.00    -0.254 F 
ENDBRANCH   6   7
ENDBRANCH   4   6
ENDBRANCH   2   4
TORSDOF 3
