REMARK  4 active torsions:
REMARK  status: ('A' for Active; 'I' for Inactive)
REMARK    1  A    between atoms: C5_5  and  C6_6 
REMARK    2  A    between atoms: C5_5  and  C8_8 
REMARK    3  A    between atoms: C6_6  and  C7_7 
REMARK    4  A    between atoms: C6_6  and  N9_9 
ROOT
HETATM    1  C6  UNL     1     -33.593   6.614   2.862  1.00 20.00     0.285 C 
ENDROOT
BRANCH   1   2
HETATM    2  C5  UNL     1     -33.040   6.782   1.429  1.00 20.00     0.049 C 
BRANCH   2   3
HETATM    3  C8  UNL     1     -32.625   8.210   0.963  1.00 20.00    -0.049 C 
HETATM    4  C1  UNL     1     -33.354   8.605  -0.332  1.00 20.00     0.014 C 
HETATM    5  C2  UNL     1     -33.038   9.202   2.072  1.00 20.00     0.014 C 
HETATM    6  C3  UNL     1     -31.109   8.344   0.750  1.00 20.00     0.014 C 
ENDBRANCH   2   3
ENDBRANCH   1   2
BRANCH   1   7
HETATM    7  C7  UNL     1     -34.289   5.261   3.015  1.00 20.00     0.386 C 
HETATM    8  F10 UNL     1     -33.380   4.283   3.253  1.00 20.00    -0.212 F 
HETATM    9  F11 UNL     1     -35.119   5.291   4.088  1.00 20.00    -0.212 F 
ENDBRANCH   1   7
BRANCH   1  10
HETATM   10  N9  UNL     1     -32.534   6.707   3.864  1.00 20.00     0.089 N 
HETATM   11  C4  UNL     1     -33.090   6.997   5.177  1.00 20.00     0.307 C 
HETATM   12  H28 UNL     1     -31.891   7.449   3.598  1.00 20.00     0.316 HD
ENDBRANCH   1  10
TORSDOF 4
