REMARK  4 active torsions:
REMARK  status: ('A' for Active; 'I' for Inactive)
REMARK    1  A    between atoms: C5_5  and  C8_8 
REMARK    2  A    between atoms: C6_6  and  C8_8 
REMARK    3  A    between atoms: C7_7  and  C8_8 
REMARK    4  A    between atoms: C8_8  and  N9_9 
ROOT
HETATM    1  C8  UNL     1     -33.741   6.828   4.596  1.00 20.00     0.217 C 
ENDROOT
BRANCH   1   2
HETATM    2  C5  UNL     1     -34.219   8.148   3.919  1.00 20.00     0.043 C 
HETATM    3  C1  UNL     1     -33.127   9.034   3.328  1.00 20.00     0.008 C 
ENDBRANCH   1   2
BRANCH   1   4
HETATM    4  C6  UNL     1     -34.926   5.978   5.177  1.00 20.00     0.021 C 
HETATM    5  C2  UNL     1     -34.488   4.691   5.890  1.00 20.00     0.012 C 
HETATM    6  C3  UNL     1     -35.992   5.609   4.130  1.00 20.00     0.012 C 
ENDBRANCH   1   4
BRANCH   1   7
HETATM    7  C7  UNL     1     -32.889   6.042   3.579  1.00 20.00     0.391 C 
HETATM    8  F10 UNL     1     -33.623   5.766   2.468  1.00 20.00    -0.212 F 
HETATM    9  F11 UNL     1     -31.838   6.788   3.156  1.00 20.00    -0.212 F 
ENDBRANCH   1   7
BRANCH   1  10
HETATM   10  N9  UNL     1     -32.829   7.173   5.704  1.00 20.00     0.094 N 
HETATM   11  C4  UNL     1     -33.515   7.997   6.680  1.00 20.00     0.307 C 
HETATM   12  H28 UNL     1     -32.038   7.675   5.318  1.00 20.00     0.316 HD
ENDBRANCH   1  10
TORSDOF 4
