REMARK  1 active torsions:
REMARK  status: ('A' for Active; 'I' for Inactive)
REMARK    1  A    between atoms: C3_3  and  C8_8 
ROOT
HETATM    1  C1  UNL     1     -32.869   6.026   2.070  1.00 20.00     0.111 C 
HETATM    2  C2  UNL     1     -32.961   7.519   2.374  1.00 20.00     0.227 C 
HETATM    3  C3  UNL     1     -33.964   6.709   4.378  1.00 20.00     0.205 C 
HETATM    4  C4  UNL     1     -33.178   8.335   1.104  1.00 20.00     0.043 C 
HETATM    5  C5  UNL     1     -33.120   7.266   5.529  1.00 20.00     0.062 C 
HETATM    6  N9  UNL     1     -34.086   7.715   3.307  1.00 20.00     0.108 N 
HETATM    7  S10 UNL     1     -33.135   5.239   3.672  1.00 20.00    -0.126 SA
HETATM    8  H27 UNL     1     -34.075   8.661   3.686  1.00 20.00     0.318 HD
ENDROOT
BRANCH   3   9
HETATM    9  C8  UNL     1     -35.353   6.312   4.884  1.00 20.00     0.026 C 
HETATM   10  C6  UNL     1     -36.211   5.789   3.736  1.00 20.00     0.013 C 
HETATM   11  C7  UNL     1     -35.241   5.269   5.992  1.00 20.00     0.013 C 
ENDBRANCH   3   9
TORSDOF 1
