REMARK  5 active torsions:
REMARK  status: ('A' for Active; 'I' for Inactive)
REMARK    1  A    between atoms: C5_5  and  C7_7 
REMARK    2  A    between atoms: C6_6  and  C8_8 
REMARK    3  A    between atoms: C7_7  and  C9_9 
REMARK    4  A    between atoms: C8_8  and  C9_9 
REMARK    5  A    between atoms: C9_9  and  O10_10 
ROOT
HETATM    1  C1  UNL     1     -34.064   3.810   4.697  1.00 20.00     0.012 C 
HETATM    2  C2  UNL     1     -34.246   4.996   4.738  1.00 20.00    -0.117 C 
HETATM    3  C5  UNL     1     -34.468   6.449   4.793  1.00 20.00     0.096 C 
ENDROOT
BRANCH   3   4
HETATM    4  C7  UNL     1     -34.374   7.069   3.397  1.00 20.00     0.049 C 
BRANCH   4   5
HETATM    5  C9  UNL     1     -32.988   6.967   2.720  1.00 20.00     0.055 C 
HETATM    6  C4  UNL     1     -31.897   7.585   3.605  1.00 20.00     0.045 C 
BRANCH   5   7
HETATM    7  C8  UNL     1     -32.912   7.592   1.309  1.00 20.00     0.037 C 
BRANCH   7   8
HETATM    8  C6  UNL     1     -33.491   9.007   1.195  1.00 20.00    -0.002 C 
HETATM    9  C3  UNL     1     -33.287   9.576  -0.202  1.00 20.00     0.005 C 
ENDBRANCH   7   8
ENDBRANCH   5   7
BRANCH   5  10
HETATM   10  O10 UNL     1     -32.659   5.575   2.613  1.00 20.00    -0.390 OA
HETATM   11  H26 UNL     1     -31.781   5.539   2.208  1.00 20.00     0.210 HD
ENDBRANCH   5  10
ENDBRANCH   4   5
ENDBRANCH   3   4
TORSDOF 5
