REMARK  1 active torsions:
REMARK  status: ('A' for Active; 'I' for Inactive)
REMARK    1  A    between atoms: C5_5  and  C6_6 
ROOT
HETATM    1  C3  UNL     1     -32.528   6.447   1.950  1.00 20.00     0.282 C 
HETATM    2  C4  UNL     1     -33.717   7.386   1.843  1.00 20.00     0.106 C 
HETATM    3  C6  UNL     1     -33.738   5.639   3.828  1.00 20.00     0.208 C 
HETATM    4  C8  UNL     1     -33.969   4.147   3.571  1.00 20.00     0.062 C 
HETATM    5  N9  UNL     1     -32.397   6.033   3.355  1.00 20.00     0.104 N 
HETATM    6  S10 UNL     1     -34.969   6.616   2.890  1.00 20.00    -0.126 SA
HETATM    7  H25 UNL     1     -31.785   5.222   3.384  1.00 20.00     0.318 HD
ENDROOT
BRANCH   3   8
HETATM    8  C5  UNL     1     -33.877   5.948   5.321  1.00 20.00     0.001 A 
HETATM    9  C1  UNL     1     -34.818   5.092   6.136  1.00 20.00     0.013 A 
HETATM   10  C2  UNL     1     -33.333   4.940   6.306  1.00 20.00     0.013 A 
HETATM   11  C7  UNL     1     -33.768   7.406   5.671  1.00 20.00     0.019 C 
ENDBRANCH   3   8
TORSDOF 1
