REMARK  1 active torsions:
REMARK  status: ('A' for Active; 'I' for Inactive)
REMARK    1  A    between atoms: C5_5  and  O11_11 
ROOT
HETATM    1  C1  UNL     1     -34.092   6.423   4.402  1.00 20.00     0.098 C 
HETATM    2  C2  UNL     1     -32.003   6.781   3.102  1.00 20.00     0.054 C 
HETATM    3  C3  UNL     1     -31.868   8.168   2.477  1.00 20.00     0.013 C 
HETATM    4  C4  UNL     1     -34.156   7.544   2.181  1.00 20.00     0.062 C 
HETATM    5  C5  UNL     1     -33.505   6.453   3.055  1.00 20.00     0.148 C 
HETATM    6  C6  UNL     1     -32.996   8.236   1.440  1.00 20.00    -0.044 C 
HETATM    7  C7  UNL     1     -33.339   9.685   1.084  1.00 20.00     0.015 C 
HETATM    8  C8  UNL     1     -32.625   7.479   0.154  1.00 20.00     0.015 C 
HETATM    9  N10 UNL     1     -34.556   6.399   5.465  1.00 20.00    -0.194 NA
ENDROOT
BRANCH   5  10
HETATM   10  O11 UNL     1     -33.669   5.177   2.442  1.00 20.00    -0.370 OA
HETATM   11  C9  UNL     1     -33.030   4.153   3.191  1.00 20.00     0.204 C 
ENDBRANCH   5  10
TORSDOF 1
