REMARK  4 active torsions:
REMARK  status: ('A' for Active; 'I' for Inactive)
REMARK    1  A    between atoms: C1_1  and  C4_4 
REMARK    2  A    between atoms: C1_1  and  C7_7 
REMARK    3  A    between atoms: C4_4  and  C5_5 
REMARK    4  A    between atoms: C5_5  and  C6_6 
ROOT
HETATM    1  C1  UNL     1     -33.560   6.001   3.459  1.00 20.00     0.130 C 
HETATM    2  O8  UNL     1     -33.550   4.791   3.229  1.00 20.00    -0.298 OA
ENDROOT
BRANCH   1   3
HETATM    3  C4  UNL     1     -32.718   6.978   2.649  1.00 20.00     0.081 C 
BRANCH   3   4
HETATM    4  C5  UNL     1     -33.444   7.541   1.427  1.00 20.00     0.038 C 
BRANCH   4   5
HETATM    5  C6  UNL     1     -32.589   8.521   0.638  1.00 20.00     0.222 C 
HETATM    6  F9  UNL     1     -33.287   8.948  -0.448  1.00 20.00    -0.255 F 
ENDBRANCH   4   5
ENDBRANCH   3   4
ENDBRANCH   1   3
BRANCH   1   7
HETATM    7  C7  UNL     1     -34.457   6.608   4.538  1.00 20.00     0.047 C 
HETATM    8  C2  UNL     1     -35.706   5.755   4.720  1.00 20.00     0.017 C 
HETATM    9  C3  UNL     1     -33.706   6.757   5.859  1.00 20.00     0.017 C 
ENDBRANCH   1   7
TORSDOF 4
