REMARK  1 active torsions:
REMARK  status: ('A' for Active; 'I' for Inactive)
REMARK    1  A    between atoms: C5_5  and  O9_9 
ROOT
HETATM    1  C1  UNL     1     -32.862   4.921   3.632  1.00 20.00     0.012 C 
HETATM    2  C2  UNL     1     -32.618   5.713   2.352  1.00 20.00     0.038 C 
HETATM    3  C3  UNL     1     -34.187   7.000   3.626  1.00 20.00     0.046 C 
HETATM    4  C4  UNL     1     -34.057   5.618   4.322  1.00 20.00    -0.045 C 
HETATM    5  C5  UNL     1     -32.929   7.148   2.766  1.00 20.00     0.055 C 
HETATM    6  C6  UNL     1     -33.793   5.777   5.825  1.00 20.00     0.015 C 
HETATM    7  C7  UNL     1     -35.344   4.803   4.126  1.00 20.00     0.015 C 
HETATM    8  C8  UNL     1     -33.122   8.087   1.584  1.00 20.00     0.045 C 
ENDROOT
BRANCH   5   9
HETATM    9  O9  UNL     1     -31.873   7.653   3.583  1.00 20.00    -0.390 OA
HETATM   10  H25 UNL     1     -32.118   8.561   3.817  1.00 20.00     0.210 HD
ENDBRANCH   5   9
TORSDOF 1
