REMARK  0 active torsions:
REMARK  status: ('A' for Active; 'I' for Inactive)
ROOT
HETATM    1  C1  UNL     1     -32.527   7.172   3.708  1.00 20.00     0.021 C 
HETATM    2  C2  UNL     1     -33.139   6.070   4.570  1.00 20.00     0.010 C 
HETATM    3  C3  UNL     1     -34.095   6.069   2.306  1.00 20.00     0.029 C 
HETATM    4  C4  UNL     1     -32.681   6.637   2.295  1.00 20.00     0.083 C 
HETATM    5  C5  UNL     1     -34.219   5.390   3.690  1.00 20.00    -0.046 C 
HETATM    6  C6  UNL     1     -35.621   5.600   4.272  1.00 20.00     0.015 C 
HETATM    7  C7  UNL     1     -33.943   3.883   3.579  1.00 20.00     0.015 C 
HETATM    8 CL8  UNL     1     -32.471   7.898   1.073  1.00 20.00    -0.125 Cl
ENDROOT
TORSDOF 0
