REMARK  1 active torsions:
REMARK  status: ('A' for Active; 'I' for Inactive)
REMARK    1  A    between atoms: C4_4  and  C8_8 
ROOT
HETATM    1  C1  UNL     1     -32.699   5.844   2.226  1.00 20.00     0.006 C 
HETATM    2  C2  UNL     1     -33.093   5.391   3.629  1.00 20.00     0.009 C 
HETATM    3  C3  UNL     1     -34.174   7.518   3.042  1.00 20.00     0.014 C 
HETATM    4  C4  UNL     1     -32.859   7.358   2.280  1.00 20.00     0.000 C 
HETATM    5  C5  UNL     1     -34.135   6.421   4.130  1.00 20.00    -0.047 C 
HETATM    6  C6  UNL     1     -35.516   5.774   4.293  1.00 20.00     0.015 C 
HETATM    7  C7  UNL     1     -33.695   7.011   5.478  1.00 20.00     0.015 C 
ENDROOT
BRANCH   4   8
HETATM    8  C8  UNL     1     -32.881   8.006   0.906  1.00 20.00     0.119 C 
HETATM    9 CL9  UNL     1     -33.081   9.763   1.055  1.00 20.00    -0.130 Cl
ENDBRANCH   4   8
TORSDOF 1
