REMARK  2 active torsions:
REMARK  status: ('A' for Active; 'I' for Inactive)
REMARK    1  A    between atoms: C5_5  and  C6_6 
REMARK    2  A    between atoms: C5_5  and  N7_7 
ROOT
HETATM    1  C1  UNL     1     -33.085   6.066   1.957  1.00 20.00     0.048 C 
HETATM    2  C2  UNL     1     -33.535   5.855   3.401  1.00 20.00     0.273 C 
HETATM    3  C3  UNL     1     -31.949   7.558   3.491  1.00 20.00     0.288 C 
HETATM    4  C4  UNL     1     -32.115   7.242   2.013  1.00 20.00     0.087 C 
HETATM    5  N7  UNL     1     -33.232   7.129   4.053  1.00 20.00     0.091 N 
HETATM    6 BR9  UNL     1     -32.869   8.785   1.078  1.00 20.00    -0.089 Br
ENDROOT
BRANCH   5   7
HETATM    7  C5  UNL     1     -33.197   7.018   5.504  1.00 20.00     0.303 C 
BRANCH   7   8
HETATM    8  C6  UNL     1     -34.534   6.578   6.060  1.00 20.00     0.252 C 
HETATM    9  F8  UNL     1     -34.858   5.368   5.528  1.00 20.00    -0.254 F 
ENDBRANCH   7   8
ENDBRANCH   5   7
TORSDOF 2
