REMARK  4 active torsions:
REMARK  status: ('A' for Active; 'I' for Inactive)
REMARK    1  A    between atoms: C5_5  and  C6_6 
REMARK    2  A    between atoms: C6_6  and  C9_9 
REMARK    3  A    between atoms: C7_7  and  C8_8 
REMARK    4  A    between atoms: C7_7  and  N10_10 
ROOT
HETATM    1  C1  UNL     1     -32.515   8.441   5.149  1.00 20.00     0.028 C 
HETATM    2  C2  UNL     1     -31.842   8.137   3.815  1.00 20.00     0.008 C 
HETATM    3  C3  UNL     1     -33.272   7.236   5.685  1.00 20.00     0.235 C 
HETATM    4  C4  UNL     1     -33.608   6.396   3.346  1.00 20.00     0.239 C 
HETATM    5  C5  UNL     1     -32.852   7.605   2.791  1.00 20.00     0.012 C 
HETATM    6  N10 UNL     1     -34.269   6.771   4.652  1.00 20.00    -0.069 N 
HETATM    7  H30 UNL     1     -34.902   7.560   4.459  1.00 20.00     0.280 HD
ENDROOT
BRANCH   6   8
HETATM    8  C7  UNL     1     -35.132   5.656   5.177  1.00 20.00     0.266 C 
BRANCH   8   9
HETATM    9  C8  UNL     1     -34.359   4.359   5.107  1.00 20.00     0.249 C 
HETATM   10  F11 UNL     1     -34.053   4.091   3.809  1.00 20.00    -0.254 F 
ENDBRANCH   8   9
ENDBRANCH   6   8
BRANCH   5  11
HETATM   11  C6  UNL     1     -32.152   7.241   1.484  1.00 20.00     0.021 C 
BRANCH  11  12
HETATM   12  C9  UNL     1     -31.516   8.437   0.789  1.00 20.00     0.115 C 
HETATM   13 CL12 UNL     1     -32.708   9.698   0.402  1.00 20.00    -0.130 Cl
ENDBRANCH  11  12
ENDBRANCH   5  11
TORSDOF 4
