REMARK  4 active torsions:
REMARK  status: ('A' for Active; 'I' for Inactive)
REMARK    1  A    between atoms: C3_3  and  C5_5 
REMARK    2  A    between atoms: C3_3  and  N7_7 
REMARK    3  A    between atoms: C4_4  and  C6_6 
REMARK    4  A    between atoms: C4_4  and  N7_7 
ROOT
HETATM    1  C2  UNL     1     -33.272   4.299   3.127  1.00 20.00     0.310 C 
HETATM    2  N7  UNL     1     -33.270   5.749   3.321  1.00 20.00     0.087 N 
ENDROOT
BRANCH   2   3
HETATM    3  C3  UNL     1     -34.480   6.172   4.024  1.00 20.00     0.303 C 
BRANCH   3   4
HETATM    4  C5  UNL     1     -34.379   5.908   5.511  1.00 20.00     0.252 C 
HETATM    5  F8  UNL     1     -34.213   4.573   5.714  1.00 20.00    -0.254 F 
ENDBRANCH   3   4
ENDBRANCH   2   3
BRANCH   2   6
HETATM    6  C4  UNL     1     -33.160   6.436   2.035  1.00 20.00     0.291 C 
BRANCH   6   7
HETATM    7  C6  UNL     1     -32.633   7.864   2.191  1.00 20.00     0.106 C 
HETATM    8  C1  UNL     1     -31.259   7.929   2.848  1.00 20.00     0.028 C 
HETATM    9 CL9  UNL     1     -32.582   8.699   0.609  1.00 20.00    -0.124 Cl
ENDBRANCH   6   7
ENDBRANCH   2   6
TORSDOF 4
