REMARK  3 active torsions:
REMARK  status: ('A' for Active; 'I' for Inactive)
REMARK    1  A    between atoms: C2_2  and  C8_8 
REMARK    2  A    between atoms: C6_6  and  C8_8 
REMARK    3  A    between atoms: C8_8  and  N9_9 
ROOT
HETATM    1  C8  UNL     1     -34.579   4.731   4.086  1.00 20.00     0.255 C 
ENDROOT
BRANCH   1   2
HETATM    2  C2  UNL     1     -34.189   4.257   5.458  1.00 20.00    -0.001 C 
HETATM    3  C1  UNL     1     -34.364   4.975   6.574  1.00 20.00     0.009 C 
ENDBRANCH   1   2
BRANCH   1   4
HETATM    4  C6  UNL     1     -33.460   5.520   3.429  1.00 20.00     0.084 C 
HETATM    5  C4  UNL     1     -33.645   5.665   1.921  1.00 20.00     0.018 C 
HETATM    6  C3  UNL     1     -32.789   6.848   1.496  1.00 20.00     0.011 C 
HETATM    7  C5  UNL     1     -33.155   7.997   2.420  1.00 20.00     0.074 C 
HETATM    8  S10 UNL     1     -33.395   7.233   4.048  1.00 20.00    -0.162 SA
ENDBRANCH   1   4
BRANCH   1   9
HETATM    9  N9  UNL     1     -35.770   5.536   4.218  1.00 20.00     0.088 N 
HETATM   10  C7  UNL     1     -36.965   4.704   4.348  1.00 20.00     0.307 C 
HETATM   11  H25 UNL     1     -35.878   6.136   3.396  1.00 20.00     0.316 HD
ENDBRANCH   1   9
TORSDOF 3
