REMARK  2 active torsions:
REMARK  status: ('A' for Active; 'I' for Inactive)
REMARK    1  A    between atoms: C5_5  and  C6_6 
REMARK    2  A    between atoms: C5_5  and  N7_7 
ROOT
HETATM    1  C1  UNL     1     -33.384   5.631   2.330  1.00 20.00     0.052 C 
HETATM    2  C2  UNL     1     -33.875   5.621   3.778  1.00 20.00     0.274 C 
HETATM    3  C3  UNL     1     -32.135   7.176   3.679  1.00 20.00     0.292 C 
HETATM    4  C4  UNL     1     -32.437   6.824   2.230  1.00 20.00     0.112 C 
HETATM    5  N7  UNL     1     -33.411   6.892   4.338  1.00 20.00     0.092 N 
HETATM    6 CL9  UNL     1     -33.236   8.196   1.403  1.00 20.00    -0.123 Cl
ENDROOT
BRANCH   5   7
HETATM    7  C5  UNL     1     -33.299   6.857   5.788  1.00 20.00     0.303 C 
BRANCH   7   8
HETATM    8  C6  UNL     1     -34.637   6.585   6.442  1.00 20.00     0.252 C 
HETATM    9  F8  UNL     1     -35.108   5.386   6.003  1.00 20.00    -0.254 F 
ENDBRANCH   7   8
ENDBRANCH   5   7
TORSDOF 2
