REMARK  2 active torsions:
REMARK  status: ('A' for Active; 'I' for Inactive)
REMARK    1  A    between atoms: C4_4  and  C10_10 
REMARK    2  A    between atoms: C10_10  and  C11_11 
ROOT
HETATM    1  C1  UNL     1     -33.092   5.751   1.443  1.00 20.00     0.007 C 
HETATM    2  C2  UNL     1     -33.589   7.005   0.740  1.00 20.00     0.009 C 
HETATM    3  C3  UNL     1     -32.023   7.622   2.530  1.00 20.00     0.015 C 
HETATM    4  C4  UNL     1     -32.650   6.250   2.816  1.00 20.00     0.005 C 
HETATM    5  C5  UNL     1     -32.612   8.112   1.183  1.00 20.00    -0.047 C 
HETATM    6  C6  UNL     1     -33.345   9.448   1.349  1.00 20.00     0.015 C 
HETATM    7  C7  UNL     1     -31.491   8.284   0.145  1.00 20.00     0.015 C 
ENDROOT
BRANCH   4   8
HETATM    8  C10 UNL     1     -33.816   6.354   3.798  1.00 20.00     0.089 C 
HETATM    9 CL12 UNL     1     -33.234   7.104   5.320  1.00 20.00    -0.124 Cl
BRANCH   8  10
HETATM   10  C11 UNL     1     -34.531   5.001   4.045  1.00 20.00    -0.004 C 
HETATM   11  C8  UNL     1     -33.613   3.898   4.582  1.00 20.00     0.011 C 
HETATM   12  C9  UNL     1     -35.747   5.155   4.965  1.00 20.00     0.011 C 
ENDBRANCH   8  10
ENDBRANCH   4   8
TORSDOF 2
