REMARK  1 active torsions:
REMARK  status: ('A' for Active; 'I' for Inactive)
REMARK    1  A    between atoms: C7_7  and  N8_8 
ROOT
HETATM    1  C1  UNL     1     -33.010   5.369   2.010  1.00 20.00     0.048 C 
HETATM    2  C2  UNL     1     -34.028   5.109   3.113  1.00 20.00     0.274 C 
HETATM    3  C3  UNL     1     -33.395   7.325   3.399  1.00 20.00     0.288 C 
HETATM    4  C4  UNL     1     -32.620   6.833   2.185  1.00 20.00     0.087 C 
HETATM    5  N8  UNL     1     -33.650   6.084   4.136  1.00 20.00     0.093 N 
HETATM    6 BR9  UNL     1     -33.065   7.880   0.612  1.00 20.00    -0.089 Br
ENDROOT
BRANCH   5   7
HETATM    7  C7  UNL     1     -34.676   6.245   5.156  1.00 20.00     0.215 C 
HETATM    8  C5  UNL     1     -34.217   7.288   6.165  1.00 20.00     0.042 C 
HETATM    9  C6  UNL     1     -34.930   4.897   5.816  1.00 20.00     0.042 C 
ENDBRANCH   5   7
TORSDOF 1
