REMARK  2 active torsions:
REMARK  status: ('A' for Active; 'I' for Inactive)
REMARK    1  A    between atoms: C6_6  and  C7_7 
REMARK    2  A    between atoms: C6_6  and  N9_9 
ROOT
HETATM    1  C1  UNL     1     -32.954   7.990   1.795  1.00 20.00     0.095 C 
HETATM    2  C2  UNL     1     -34.349   4.819   2.399  1.00 20.00     0.033 C 
HETATM    3  C3  UNL     1     -33.295   5.544   1.574  1.00 20.00     0.053 C 
HETATM    4  C4  UNL     1     -34.018   5.209   3.825  1.00 20.00     0.274 C 
HETATM    5  C5  UNL     1     -32.803   6.692   2.466  1.00 20.00     0.328 C 
HETATM    6  N8  UNL     1     -33.072   9.015   1.265  1.00 20.00    -0.195 NA
HETATM    7  N9  UNL     1     -33.644   6.616   3.671  1.00 20.00     0.108 N 
ENDROOT
BRANCH   7   8
HETATM    8  C6  UNL     1     -32.988   7.140   4.863  1.00 20.00     0.305 C 
BRANCH   8   9
HETATM    9  C7  UNL     1     -33.899   7.077   6.070  1.00 20.00     0.252 C 
HETATM   10  F10 UNL     1     -34.255   5.783   6.290  1.00 20.00    -0.254 F 
ENDBRANCH   8   9
ENDBRANCH   7   8
TORSDOF 2
