REMARK  5 active torsions:
REMARK  status: ('A' for Active; 'I' for Inactive)
REMARK    1  A    between atoms: C3_3  and  C4_4 
REMARK    2  A    between atoms: C3_3  and  N8_8 
REMARK    3  A    between atoms: C5_5  and  C7_7 
REMARK    4  A    between atoms: C6_6  and  C7_7 
REMARK    5  A    between atoms: C7_7  and  N8_8 
ROOT
HETATM    1  C7  UNL     1     -33.438   6.801   3.713  1.00 20.00     0.237 C 
ENDROOT
BRANCH   1   2
HETATM    2  C5  UNL     1     -34.098   5.422   3.607  1.00 20.00     0.150 C 
HETATM    3 CL10 UNL     1     -35.845   5.509   3.967  1.00 20.00    -0.128 Cl
ENDBRANCH   1   2
BRANCH   1   4
HETATM    4  C6  UNL     1     -33.112   7.179   5.181  1.00 20.00     0.011 C 
HETATM    5  C1  UNL     1     -34.342   7.218   6.092  1.00 20.00     0.012 C 
HETATM    6  C2  UNL     1     -32.366   8.515   5.260  1.00 20.00     0.012 C 
ENDBRANCH   1   4
BRANCH   1   7
HETATM    7  N8  UNL     1     -32.259   6.873   2.878  1.00 20.00     0.091 N 
HETATM    8  H25 UNL     1     -31.717   6.011   2.971  1.00 20.00     0.316 HD
BRANCH   7   9
HETATM    9  C3  UNL     1     -32.614   7.055   1.473  1.00 20.00     0.301 C 
BRANCH   9  10
HETATM   10  C4  UNL     1     -32.973   8.494   1.173  1.00 20.00     0.252 C 
HETATM   11  F9  UNL     1     -33.282   8.607  -0.147  1.00 20.00    -0.254 F 
ENDBRANCH   9  10
ENDBRANCH   7   9
ENDBRANCH   1   7
TORSDOF 5
