REMARK  0 active torsions:
REMARK  status: ('A' for Active; 'I' for Inactive)
ROOT
HETATM    1  C1  UNL     1     -32.765   8.326   1.044  1.00 20.00     0.088 C 
HETATM    2  C2  UNL     1     -33.207   6.568   2.630  1.00 20.00    -0.069 C 
HETATM    3  C3  UNL     1     -32.798   6.958   1.418  1.00 20.00     0.096 C 
HETATM    4  C4  UNL     1     -33.668   7.501   3.713  1.00 20.00     0.036 C 
HETATM    5  C5  UNL     1     -33.293   5.136   3.084  1.00 20.00     0.043 C 
HETATM    6  C6  UNL     1     -33.836   6.582   4.922  1.00 20.00     0.013 C 
HETATM    7  C7  UNL     1     -34.195   5.206   4.330  1.00 20.00    -0.044 C 
HETATM    8  C8  UNL     1     -33.880   4.076   5.314  1.00 20.00     0.015 C 
HETATM    9  C9  UNL     1     -35.684   5.137   3.947  1.00 20.00     0.015 C 
HETATM   10  N10 UNL     1     -32.737   9.444   0.734  1.00 20.00    -0.192 NA
ENDROOT
TORSDOF 0
