REMARK  0 active torsions:
REMARK  status: ('A' for Active; 'I' for Inactive)
ROOT
HETATM    1  C1  UNL     1     -33.043   6.970   2.559  1.00 20.00     0.064 C 
HETATM    2  C2  UNL     1     -33.346   4.862   3.851  1.00 20.00     0.020 C 
HETATM    3  C3  UNL     1     -34.761   4.357   4.131  1.00 20.00     0.010 C 
HETATM    4  C4  UNL     1     -34.889   6.733   4.204  1.00 20.00     0.027 C 
HETATM    5  C5  UNL     1     -33.433   6.395   3.853  1.00 20.00     0.093 C 
HETATM    6  C6  UNL     1     -35.434   5.488   4.920  1.00 20.00    -0.046 C 
HETATM    7  C7  UNL     1     -36.959   5.405   4.827  1.00 20.00     0.015 C 
HETATM    8  C8  UNL     1     -35.016   5.467   6.399  1.00 20.00     0.015 C 
HETATM    9  N9  UNL     1     -32.736   7.424   1.536  1.00 20.00    -0.197 NA
ENDROOT
TORSDOF 0
