REMARK  1 active torsions:
REMARK  status: ('A' for Active; 'I' for Inactive)
REMARK    1  A    between atoms: C4_4  and  S8_8 
ROOT
HETATM    1  C1  UNL     1     -31.761   8.214   2.422  1.00 20.00     0.015 C 
HETATM    2  C2  UNL     1     -31.926   7.061   3.409  1.00 20.00     0.010 C 
HETATM    3  C3  UNL     1     -33.995   7.451   2.140  1.00 20.00     0.023 C 
HETATM    4  C4  UNL     1     -32.777   7.895   1.335  1.00 20.00     0.045 C 
HETATM    5  C5  UNL     1     -33.403   6.611   3.297  1.00 20.00    -0.047 C 
HETATM    6  C6  UNL     1     -33.480   5.112   2.970  1.00 20.00     0.015 C 
HETATM    7  C7  UNL     1     -34.163   6.878   4.602  1.00 20.00     0.015 C 
ENDROOT
BRANCH   4   8
HETATM    8  S8  UNL     1     -33.127   9.320   0.274  1.00 20.00    -0.177 SA
HETATM    9  H22 UNL     1     -34.008   8.686  -0.509  1.00 20.00     0.102 HD
ENDBRANCH   4   8
TORSDOF 1
