REMARK  0 active torsions:
REMARK  status: ('A' for Active; 'I' for Inactive)
ROOT
HETATM    1  C1  UNL     1     -33.003   8.267   0.994  1.00 20.00     0.064 C 
HETATM    2  C2  UNL     1     -32.226   7.095   3.050  1.00 20.00     0.020 C 
HETATM    3  C3  UNL     1     -33.258   6.629   4.076  1.00 20.00     0.010 C 
HETATM    4  C4  UNL     1     -34.292   6.370   1.948  1.00 20.00     0.027 C 
HETATM    5  C5  UNL     1     -32.905   6.971   1.678  1.00 20.00     0.093 C 
HETATM    6  C6  UNL     1     -34.172   5.665   3.308  1.00 20.00    -0.046 C 
HETATM    7  C7  UNL     1     -33.528   4.277   3.162  1.00 20.00     0.015 C 
HETATM    8  C8  UNL     1     -35.533   5.519   3.991  1.00 20.00     0.015 C 
HETATM    9  N9  UNL     1     -33.081   9.290   0.454  1.00 20.00    -0.197 NA
ENDROOT
TORSDOF 0
