REMARK  0 active torsions:
REMARK  status: ('A' for Active; 'I' for Inactive)
ROOT
HETATM    1  C1  UNL     1     -32.412   7.166   4.110  1.00 20.00     0.016 C 
HETATM    2  C2  UNL     1     -33.854   6.968   4.562  1.00 20.00     0.010 C 
HETATM    3  C3  UNL     1     -33.210   5.129   3.064  1.00 20.00     0.024 C 
HETATM    4  C4  UNL     1     -32.314   6.345   2.837  1.00 20.00     0.058 C 
HETATM    5  C5  UNL     1     -34.170   5.497   4.226  1.00 20.00    -0.047 C 
HETATM    6  C6  UNL     1     -35.636   5.337   3.810  1.00 20.00     0.015 C 
HETATM    7  C7  UNL     1     -33.897   4.600   5.445  1.00 20.00     0.015 C 
HETATM    8 BR8  UNL     1     -32.959   7.384   1.311  1.00 20.00    -0.091 Br
ENDROOT
TORSDOF 0
