REMARK  3 active torsions:
REMARK  status: ('A' for Active; 'I' for Inactive)
REMARK    1  A    between atoms: C4_4  and  C5_5 
REMARK    2  A    between atoms: C6_6  and  C7_7 
REMARK    3  A    between atoms: C6_6  and  N8_8 
ROOT
HETATM    1  C1  UNL     1     -32.607   6.006   1.502  1.00 20.00     0.035 C 
HETATM    2  C2  UNL     1     -33.707   5.253   2.223  1.00 20.00     0.235 C 
HETATM    3  C3  UNL     1     -32.709   6.932   3.705  1.00 20.00     0.240 C 
HETATM    4  C4  UNL     1     -32.525   7.334   2.244  1.00 20.00     0.027 C 
HETATM    5  N8  UNL     1     -33.522   5.649   3.671  1.00 20.00    -0.068 N 
HETATM    6  H24 UNL     1     -32.943   4.916   4.108  1.00 20.00     0.280 HD
ENDROOT
BRANCH   5   7
HETATM    7  C6  UNL     1     -34.800   5.710   4.445  1.00 20.00     0.266 C 
BRANCH   7   8
HETATM    8  C7  UNL     1     -34.487   5.636   5.922  1.00 20.00     0.249 C 
HETATM    9  F9  UNL     1     -33.660   6.663   6.256  1.00 20.00    -0.254 F 
ENDBRANCH   7   8
ENDBRANCH   5   7
BRANCH   4  10
HETATM   10  C5  UNL     1     -33.593   8.326   1.784  1.00 20.00     0.121 C 
HETATM   11 CL10 UNL     1     -33.095   9.115   0.274  1.00 20.00    -0.130 Cl
ENDBRANCH   4  10
TORSDOF 3
