REMARK  2 active torsions:
REMARK  status: ('A' for Active; 'I' for Inactive)
REMARK    1  A    between atoms: C3_3  and  C8_8 
REMARK    2  A    between atoms: C3_3  and  C9_9 
ROOT
HETATM    1  C1  UNL     1     -32.898   9.464   0.266  1.00 20.00     0.012 C 
HETATM    2  C2  UNL     1     -33.156   8.416   0.791  1.00 20.00    -0.110 C 
HETATM    3  C9  UNL     1     -33.476   7.133   1.427  1.00 20.00     0.172 C 
ENDROOT
BRANCH   3   4
HETATM    4  C3  UNL     1     -32.979   7.052   2.856  1.00 20.00     0.151 C 
HETATM    5  O10 UNL     1     -31.795   7.182   3.165  1.00 20.00    -0.296 OA
BRANCH   4   6
HETATM    6  C8  UNL     1     -34.021   6.802   3.900  1.00 20.00     0.117 C 
HETATM    7  C6  UNL     1     -33.386   6.768   5.293  1.00 20.00     0.023 C 
HETATM    8  C4  UNL     1     -34.248   6.044   6.321  1.00 20.00     0.002 C 
HETATM    9  C5  UNL     1     -34.374   4.544   6.045  1.00 20.00     0.010 C 
HETATM   10  C7  UNL     1     -34.149   4.124   4.596  1.00 20.00     0.075 C 
HETATM   11  S11 UNL     1     -34.904   5.279   3.421  1.00 20.00    -0.157 SA
ENDBRANCH   4   6
ENDBRANCH   3   4
TORSDOF 2
