REMARK  1 active torsions:
REMARK  status: ('A' for Active; 'I' for Inactive)
REMARK    1  A    between atoms: C3_3  and  C8_8 
ROOT
HETATM    1  C1  UNL     1     -32.064   6.797   0.600  1.00 20.00     0.021 C 
HETATM    2  C2  UNL     1     -32.149   6.993   1.781  1.00 20.00    -0.037 C 
HETATM    3  C3  UNL     1     -32.250   7.228   3.202  1.00 20.00     0.235 C 
HETATM    4  O10 UNL     1     -31.324   7.761   3.798  1.00 20.00    -0.280 OA
ENDROOT
BRANCH   3   5
HETATM    5  C8  UNL     1     -33.526   6.788   3.860  1.00 20.00     0.129 C 
HETATM    6  C6  UNL     1     -33.468   7.110   5.358  1.00 20.00     0.047 C 
HETATM    7  C4  UNL     1     -34.523   6.342   6.149  1.00 20.00     0.006 C 
HETATM    8  C5  UNL     1     -34.465   4.859   5.807  1.00 20.00     0.026 C 
HETATM    9  C7  UNL     1     -34.528   4.648   4.301  1.00 20.00     0.169 C 
HETATM   10  O11 UNL     1     -33.501   5.376   3.630  1.00 20.00    -0.372 OA
HETATM   11  C9  UNL     1     -34.700   7.456   3.144  1.00 20.00     0.055 C 
ENDBRANCH   3   5
TORSDOF 1
