REMARK  2 active torsions:
REMARK  status: ('A' for Active; 'I' for Inactive)
REMARK    1  A    between atoms: C1_1  and  C5_5 
REMARK    2  A    between atoms: C6_6  and  C10_10 
ROOT
HETATM    1  C2  UNL     1     -33.038   6.983   4.453  1.00 20.00     0.016 C 
HETATM    2  C3  UNL     1     -32.569   7.787   3.241  1.00 20.00     0.005 C 
HETATM    3  C4  UNL     1     -34.081   6.407   1.750  1.00 20.00     0.009 C 
HETATM    4  C5  UNL     1     -34.443   6.431   4.236  1.00 20.00     0.090 C 
HETATM    5  C6  UNL     1     -32.667   6.979   1.939  1.00 20.00    -0.014 C 
HETATM    6  C7  UNL     1     -34.564   5.585   2.959  1.00 20.00    -0.004 C 
HETATM    7  C8  UNL     1     -33.830   4.239   3.031  1.00 20.00     0.011 C 
ENDROOT
BRANCH   4   8
HETATM    8  C1  UNL     1     -34.854   5.632   5.460  1.00 20.00     0.177 C 
HETATM    9  O11 UNL     1     -34.309   5.986   6.542  1.00 20.00    -0.648 OA
HETATM   10  O12 UNL     1     -35.692   4.714   5.236  1.00 20.00    -0.648 OA
ENDBRANCH   4   8
BRANCH   5  11
HETATM   11  C10 UNL     1     -32.274   7.844   0.742  1.00 20.00     0.000 C 
HETATM   12  C9  UNL     1     -33.191   9.011   0.581  1.00 20.00     0.005 C 
ENDBRANCH   5  11
TORSDOF 2
