REMARK  3 active torsions:
REMARK  status: ('A' for Active; 'I' for Inactive)
REMARK    1  A    between atoms: C2_2  and  C9_9 
REMARK    2  A    between atoms: C3_3  and  C6_6 
REMARK    3  A    between atoms: C7_7  and  C9_9 
ROOT
HETATM    1  C4  UNL     1     -32.555   4.710   2.128  1.00 20.00     0.016 C 
HETATM    2  C5  UNL     1     -33.678   4.129   3.010  1.00 20.00     0.007 C 
HETATM    3  C6  UNL     1     -33.407   5.995   1.998  1.00 20.00     0.091 C 
HETATM    4  C7  UNL     1     -34.102   5.585   3.332  1.00 20.00     0.004 C 
ENDROOT
BRANCH   4   5
HETATM    5  C9  UNL     1     -33.560   6.135   4.645  1.00 20.00     0.038 C 
BRANCH   5   6
HETATM    6  C2  UNL     1     -34.454   5.825   5.820  1.00 20.00    -0.093 C 
HETATM    7  C1  UNL     1     -35.235   4.733   5.838  1.00 20.00     0.014 C 
HETATM    8  C8  UNL     1     -34.461   6.809   6.954  1.00 20.00     0.042 C 
ENDBRANCH   5   6
ENDBRANCH   4   5
BRANCH   3   9
HETATM    9  C3  UNL     1     -32.657   7.278   2.000  1.00 20.00     0.177 C 
HETATM   10  O10 UNL     1     -31.838   7.422   2.950  1.00 20.00    -0.648 OA
HETATM   11  O11 UNL     1     -32.938   8.057   1.047  1.00 20.00    -0.648 OA
ENDBRANCH   3   9
TORSDOF 3
