REMARK  3 active torsions:
REMARK  status: ('A' for Active; 'I' for Inactive)
REMARK    1  A    between atoms: C3_3  and  C7_7 
REMARK    2  A    between atoms: C6_6  and  C8_8 
REMARK    3  A    between atoms: C7_7  and  C8_8 
ROOT
HETATM    1  C1  UNL     1     -33.268   9.101   1.377  1.00 20.00     0.012 C 
HETATM    2  C2  UNL     1     -32.768   8.106   1.828  1.00 20.00    -0.117 C 
HETATM    3  C6  UNL     1     -32.148   6.891   2.377  1.00 20.00     0.098 C 
ENDROOT
BRANCH   3   4
HETATM    4  C8  UNL     1     -33.156   5.926   3.040  1.00 20.00     0.006 C 
HETATM    5  C5  UNL     1     -34.135   5.369   1.994  1.00 20.00     0.011 C 
BRANCH   4   6
HETATM    6  C7  UNL     1     -33.921   6.540   4.237  1.00 20.00     0.087 C 
HETATM    7  C4  UNL     1     -33.046   7.420   5.131  1.00 20.00     0.021 C 
BRANCH   6   8
HETATM    8  C3  UNL     1     -34.485   5.468   5.194  1.00 20.00     0.177 C 
HETATM    9  O9  UNL     1     -34.564   5.795   6.412  1.00 20.00    -0.648 OA
HETATM   10  O10 UNL     1     -34.808   4.381   4.633  1.00 20.00    -0.648 OA
ENDBRANCH   6   8
ENDBRANCH   4   6
ENDBRANCH   3   4
TORSDOF 3
