REMARK  3 active torsions:
REMARK  status: ('A' for Active; 'I' for Inactive)
REMARK    1  A    between atoms: C6_6  and  C7_7 
REMARK    2  A    between atoms: C6_6  and  C8_8 
REMARK    3  A    between atoms: C7_7  and  N9_9 
ROOT
HETATM    1  C1  UNL     1     -34.030   4.296   3.148  1.00 20.00     0.029 C 
HETATM    2  C2  UNL     1     -34.340   4.686   4.590  1.00 20.00     0.023 C 
HETATM    3  C3  UNL     1     -32.818   5.042   2.609  1.00 20.00     0.235 C 
HETATM    4  C4  UNL     1     -33.274   6.941   4.188  1.00 20.00     0.254 C 
HETATM    5  C5  UNL     1     -34.493   6.199   4.725  1.00 20.00     0.108 C 
HETATM    6  N9  UNL     1     -33.036   6.529   2.752  1.00 20.00    -0.070 N 
HETATM    7 CL11 UNL     1     -34.746   6.631   6.440  1.00 20.00    -0.123 Cl
HETATM    8  H27 UNL     1     -33.887   6.765   2.223  1.00 20.00     0.279 HD
ENDROOT
BRANCH   6   9
HETATM    9  C7  UNL     1     -31.917   7.316   2.128  1.00 20.00     0.237 C 
BRANCH   9  10
HETATM   10  C6  UNL     1     -32.116   7.354   0.620  1.00 20.00     0.059 C 
BRANCH  10  11
HETATM   11  C8  UNL     1     -33.457   7.966   0.256  1.00 20.00     0.223 C 
HETATM   12  F10 UNL     1     -33.515   9.235   0.740  1.00 20.00    -0.255 F 
ENDBRANCH  10  11
ENDBRANCH   9  10
ENDBRANCH   6   9
TORSDOF 3
