REMARK  3 active torsions:
REMARK  status: ('A' for Active; 'I' for Inactive)
REMARK    1  A    between atoms: C6_6  and  C7_7 
REMARK    2  A    between atoms: C6_6  and  C8_8 
REMARK    3  A    between atoms: C7_7  and  N9_9 
ROOT
HETATM    1  C1  UNL     1     -33.973   4.231   3.066  1.00 20.00     0.050 C 
HETATM    2  C2  UNL     1     -35.093   6.008   4.437  1.00 20.00     0.050 C 
HETATM    3  C3  UNL     1     -32.838   5.221   2.785  1.00 20.00     0.274 C 
HETATM    4  C4  UNL     1     -33.922   6.940   4.111  1.00 20.00     0.274 C 
HETATM    5  C5  UNL     1     -34.704   4.531   4.375  1.00 20.00     0.085 C 
HETATM    6  N9  UNL     1     -33.326   6.606   2.810  1.00 20.00     0.088 N 
HETATM    7 CL11 UNL     1     -33.678   4.095   5.778  1.00 20.00    -0.125 Cl
ENDROOT
BRANCH   6   8
HETATM    8  C7  UNL     1     -32.244   7.536   2.488  1.00 20.00     0.275 C 
BRANCH   8   9
HETATM    9  C6  UNL     1     -32.002   7.566   0.980  1.00 20.00     0.061 C 
BRANCH   9  10
HETATM   10  C8  UNL     1     -33.238   8.030   0.228  1.00 20.00     0.223 C 
HETATM   11  F10 UNL     1     -33.571   9.281   0.643  1.00 20.00    -0.255 F 
ENDBRANCH   9  10
ENDBRANCH   8   9
ENDBRANCH   6   8
TORSDOF 3
