REMARK  2 active torsions:
REMARK  status: ('A' for Active; 'I' for Inactive)
REMARK    1  A    between atoms: C4_4  and  C7_7 
REMARK    2  A    between atoms: C6_6  and  C10_10 
ROOT
HETATM    1  C1  UNL     1     -34.664   4.940   4.102  1.00 20.00     0.015 A 
HETATM    2  C2  UNL     1     -34.410   4.162   2.993  1.00 20.00     0.051 A 
HETATM    3  C3  UNL     1     -33.987   6.192   4.044  1.00 20.00    -0.048 A 
HETATM    4  C4  UNL     1     -33.241   6.324   2.893  1.00 20.00    -0.003 A 
HETATM    5  C8  UNL     1     -34.083   7.221   5.108  1.00 20.00     0.049 C 
HETATM    6  S11 UNL     1     -33.359   4.942   1.889  1.00 20.00    -0.105 SA
ENDROOT
BRANCH   4   7
HETATM    7  C7  UNL     1     -32.385   7.570   2.528  1.00 20.00    -0.005 A 
HETATM    8  C5  UNL     1     -32.220   7.872   1.046  1.00 20.00     0.021 A 
HETATM    9  C6  UNL     1     -33.142   8.723   1.868  1.00 20.00     0.010 A 
HETATM   10  C9  UNL     1     -31.228   7.845   3.445  1.00 20.00     0.021 C 
BRANCH   9  11
HETATM   11  C10 UNL     1     -32.813  10.153   2.130  1.00 20.00     0.091 C 
HETATM   12 BR12 UNL     1     -33.237  11.248   0.572  1.00 20.00    -0.096 Br
ENDBRANCH   9  11
ENDBRANCH   4   7
TORSDOF 2
