REMARK  3 active torsions:
REMARK  status: ('A' for Active; 'I' for Inactive)
REMARK    1  A    between atoms: C4_4  and  C6_6 
REMARK    2  A    between atoms: C5_5  and  C8_8 
REMARK    3  A    between atoms: C6_6  and  C9_9 
ROOT
HETATM    1  C3  UNL     1     -32.102   6.739   3.299  1.00 20.00     0.017 A 
HETATM    2  C5  UNL     1     -33.077   7.598   2.546  1.00 20.00     0.009 A 
HETATM    3  C6  UNL     1     -33.533   6.262   3.118  1.00 20.00    -0.032 A 
ENDROOT
BRANCH   3   4
HETATM    4  C4  UNL     1     -34.501   6.252   4.311  1.00 20.00    -0.006 A 
HETATM    5  C1  UNL     1     -35.268   5.026   4.723  1.00 20.00     0.006 A 
HETATM    6  C2  UNL     1     -34.181   5.565   5.610  1.00 20.00     0.006 A 
ENDBRANCH   3   4
BRANCH   3   7
HETATM    7  C9  UNL     1     -33.744   5.102   2.175  1.00 20.00     0.006 C 
HETATM    8  C7  UNL     1     -33.001   3.873   2.609  1.00 20.00     0.006 C 
ENDBRANCH   3   7
BRANCH   2   9
HETATM    9  C8  UNL     1     -32.901   7.837   1.085  1.00 20.00     0.120 C 
HETATM   10 CL10 UNL     1     -31.682   9.106   0.780  1.00 20.00    -0.130 Cl
ENDBRANCH   2   9
TORSDOF 3
