REMARK  3 active torsions:
REMARK  status: ('A' for Active; 'I' for Inactive)
REMARK    1  A    between atoms: C2_2  and  C10_10 
REMARK    2  A    between atoms: C3_3  and  C9_9 
REMARK    3  A    between atoms: C4_4  and  O11_11 
ROOT
HETATM    1  C1  UNL     1     -35.529   6.145   2.645  1.00 20.00     0.038 C 
HETATM    2  C2  UNL     1     -34.419   6.785   3.513  1.00 20.00     0.002 C 
HETATM    3  C3  UNL     1     -34.506   5.527   4.424  1.00 20.00     0.019 C 
HETATM    4  C4  UNL     1     -35.950   5.322   3.885  1.00 20.00     0.123 C 
ENDROOT
BRANCH   2   5
HETATM    5  C10 UNL     1     -33.090   7.036   2.828  1.00 20.00    -0.047 C 
HETATM    6  C6  UNL     1     -32.032   7.468   3.863  1.00 20.00     0.015 C 
HETATM    7  C7  UNL     1     -33.237   8.151   1.773  1.00 20.00     0.015 C 
HETATM    8  C8  UNL     1     -32.603   5.751   2.128  1.00 20.00     0.015 C 
ENDBRANCH   2   5
BRANCH   3   9
HETATM    9  C9  UNL     1     -34.327   5.760   5.912  1.00 20.00     0.003 C 
HETATM   10  C5  UNL     1     -34.653   4.540   6.716  1.00 20.00     0.005 C 
ENDBRANCH   3   9
BRANCH   4  11
HETATM   11  O11 UNL     1     -37.020   5.885   4.670  1.00 20.00    -0.395 OA
HETATM   12  H31 UNL     1     -37.776   5.949   4.073  1.00 20.00     0.210 HD
ENDBRANCH   4  11
TORSDOF 3
