REMARK  3 active torsions:
REMARK  status: ('A' for Active; 'I' for Inactive)
REMARK    1  A    between atoms: C2_2  and  C6_6 
REMARK    2  A    between atoms: C3_3  and  C7_7 
REMARK    3  A    between atoms: C3_3  and  C8_8 
ROOT
HETATM    1  C1  UNL     1     -32.431   5.239   2.636  1.00 20.00     0.016 A 
HETATM    2  C2  UNL     1     -33.085   6.427   1.983  1.00 20.00     0.009 A 
HETATM    3  C3  UNL     1     -33.257   6.192   3.474  1.00 20.00    -0.036 A 
ENDROOT
BRANCH   3   4
HETATM    4  C7  UNL     1     -32.536   7.068   4.465  1.00 20.00     0.005 C 
HETATM    5  C4  UNL     1     -33.472   7.962   5.226  1.00 20.00     0.006 C 
ENDBRANCH   3   4
BRANCH   3   6
HETATM    6  C8  UNL     1     -34.610   5.725   3.944  1.00 20.00     0.005 C 
HETATM    7  C5  UNL     1     -34.525   4.495   4.801  1.00 20.00     0.006 C 
ENDBRANCH   3   6
BRANCH   2   8
HETATM    8  C6  UNL     1     -32.254   7.535   1.433  1.00 20.00     0.120 C 
HETATM    9 CL9  UNL     1     -33.214   9.028   1.238  1.00 20.00    -0.130 Cl
ENDBRANCH   2   8
TORSDOF 3
