REMARK  1 active torsions:
REMARK  status: ('A' for Active; 'I' for Inactive)
REMARK    1  A    between atoms: C4_4  and  C10_10 
ROOT
HETATM    1  C1  UNL     1     -32.826   7.688   3.667  1.00 20.00     0.006 C 
HETATM    2  C2  UNL     1     -33.168   6.945   4.959  1.00 20.00     0.009 C 
HETATM    3  C3  UNL     1     -34.124   4.964   3.682  1.00 20.00     0.013 C 
HETATM    4  C4  UNL     1     -33.022   6.853   2.385  1.00 20.00    -0.001 C 
HETATM    5  C5  UNL     1     -32.994   5.343   2.698  1.00 20.00    -0.013 C 
HETATM    6  C6  UNL     1     -34.364   5.986   4.826  1.00 20.00    -0.047 C 
HETATM    7  C7  UNL     1     -33.098   4.464   1.448  1.00 20.00     0.010 C 
HETATM    8  C8  UNL     1     -35.660   6.782   4.566  1.00 20.00     0.015 C 
HETATM    9  C9  UNL     1     -34.546   5.228   6.156  1.00 20.00     0.015 C 
ENDROOT
BRANCH   4  10
HETATM   10  C10 UNL     1     -31.995   7.280   1.334  1.00 20.00     0.090 C 
HETATM   11 BR11 UNL     1     -32.271   9.146   0.890  1.00 20.00    -0.096 Br
ENDBRANCH   4  10
TORSDOF 1
