REMARK  2 active torsions:
REMARK  status: ('A' for Active; 'I' for Inactive)
REMARK    1  A    between atoms: C3_3  and  C7_7 
REMARK    2  A    between atoms: C4_4  and  O8_8 
ROOT
HETATM    1  C1  UNL     1     -34.383   4.565   5.446  1.00 20.00     0.037 C 
HETATM    2  C2  UNL     1     -35.004   5.977   5.570  1.00 20.00    -0.010 C 
HETATM    3  C3  UNL     1     -34.489   6.257   4.122  1.00 20.00     0.018 C 
HETATM    4  C4  UNL     1     -34.484   4.714   3.911  1.00 20.00     0.122 C 
HETATM    5  C5  UNL     1     -34.513   6.829   6.724  1.00 20.00     0.010 C 
ENDROOT
BRANCH   3   6
HETATM    6  C7  UNL     1     -33.155   6.972   3.954  1.00 20.00     0.003 C 
HETATM    7  C6  UNL     1     -32.693   6.961   2.532  1.00 20.00     0.005 C 
ENDBRANCH   3   6
BRANCH   4   8
HETATM    8  O8  UNL     1     -33.397   4.168   3.145  1.00 20.00    -0.395 OA
HETATM    9  H22 UNL     1     -33.375   3.224   3.354  1.00 20.00     0.210 HD
ENDBRANCH   4   8
TORSDOF 2
