REMARK  3 active torsions:
REMARK  status: ('A' for Active; 'I' for Inactive)
REMARK    1  A    between atoms: C1_1  and  C9_9 
REMARK    2  A    between atoms: C5_5  and  C8_8 
REMARK    3  A    between atoms: C6_6  and  C9_9 
ROOT
HETATM    1  C2  UNL     1     -33.619   3.887   3.666  1.00 20.00     0.005 C 
HETATM    2  C3  UNL     1     -32.745   4.518   2.578  1.00 20.00     0.008 C 
HETATM    3  C4  UNL     1     -34.064   6.253   3.590  1.00 20.00     0.012 C 
HETATM    4  C5  UNL     1     -34.695   4.925   4.002  1.00 20.00    -0.014 C 
HETATM    5  C6  UNL     1     -33.361   5.890   2.286  1.00 20.00     0.030 C 
ENDROOT
BRANCH   5   6
HETATM    6  C9  UNL     1     -32.338   6.925   1.849  1.00 20.00     0.274 C 
HETATM    7  F12 UNL     1     -31.436   7.071   2.857  1.00 20.00    -0.238 F 
BRANCH   6   8
HETATM    8  C1  UNL     1     -32.882   8.322   1.567  1.00 20.00     0.208 C 
HETATM    9  O10 UNL     1     -33.545   8.865   2.494  1.00 20.00    -0.646 OA
HETATM   10  O11 UNL     1     -32.609   8.764   0.414  1.00 20.00    -0.646 OA
ENDBRANCH   6   8
ENDBRANCH   5   6
BRANCH   4  11
HETATM   11  C8  UNL     1     -35.125   4.894   5.459  1.00 20.00     0.000 C 
HETATM   12  C7  UNL     1     -33.977   5.143   6.387  1.00 20.00     0.005 C 
ENDBRANCH   4  11
TORSDOF 3
