REMARK  2 active torsions:
REMARK  status: ('A' for Active; 'I' for Inactive)
REMARK    1  A    between atoms: C3_3  and  C6_6 
REMARK    2  A    between atoms: C7_7  and  C9_9 
ROOT
HETATM    1  C1  UNL     1     -33.707   5.316   2.895  1.00 20.00     0.016 A 
HETATM    2  C2  UNL     1     -34.191   4.575   4.011  1.00 20.00     0.015 A 
HETATM    3  C3  UNL     1     -33.504   6.643   3.203  1.00 20.00    -0.013 A 
HETATM    4  C4  UNL     1     -34.338   5.364   5.131  1.00 20.00    -0.021 A 
HETATM    5  C8  UNL     1     -34.806   4.972   6.478  1.00 20.00     0.056 C 
HETATM    6  S10 UNL     1     -33.895   6.991   4.834  1.00 20.00    -0.099 SA
ENDROOT
BRANCH   3   7
HETATM    7  C6  UNL     1     -32.993   7.674   2.224  1.00 20.00     0.031 A 
HETATM    8  C5  UNL     1     -31.967   7.292   1.180  1.00 20.00     0.016 A 
HETATM    9  C7  UNL     1     -33.377   7.584   0.762  1.00 20.00     0.009 A 
BRANCH   9  10
HETATM   10  C9  UNL     1     -33.690   8.821  -0.006  1.00 20.00     0.120 C 
HETATM   11 CL11 UNL     1     -32.765  10.218   0.611  1.00 20.00    -0.130 Cl
ENDBRANCH   9  10
ENDBRANCH   3   7
TORSDOF 2
