REMARK  1 active torsions:
REMARK  status: ('A' for Active; 'I' for Inactive)
REMARK    1  A    between atoms: C4_4  and  C10_10 
ROOT
HETATM    1  C1  UNL     1     -32.498   6.816   3.361  1.00 20.00     0.007 C 
HETATM    2  C2  UNL     1     -33.559   6.944   4.454  1.00 20.00     0.009 C 
HETATM    3  C3  UNL     1     -34.771   4.940   3.458  1.00 20.00     0.013 C 
HETATM    4  C4  UNL     1     -33.047   6.223   2.055  1.00 20.00     0.003 C 
HETATM    5  C5  UNL     1     -33.766   4.877   2.291  1.00 20.00    -0.013 C 
HETATM    6  C6  UNL     1     -34.288   5.619   4.763  1.00 20.00    -0.047 C 
HETATM    7  C7  UNL     1     -32.767   3.723   2.427  1.00 20.00     0.010 C 
HETATM    8  C8  UNL     1     -33.382   4.687   5.590  1.00 20.00     0.015 C 
HETATM    9  C9  UNL     1     -35.526   5.930   5.634  1.00 20.00     0.015 C 
ENDROOT
BRANCH   4  10
HETATM   10  C10 UNL     1     -33.968   7.222   1.342  1.00 20.00     0.119 C 
HETATM   11 CL11 UNL     1     -33.076   8.704   0.963  1.00 20.00    -0.130 Cl
ENDBRANCH   4  10
TORSDOF 1
