REMARK  2 active torsions:
REMARK  status: ('A' for Active; 'I' for Inactive)
REMARK    1  A    between atoms: C4_4  and  C8_8 
REMARK    2  A    between atoms: C8_8  and  O9_9 
ROOT
HETATM    1  C1  UNL     1     -31.890   7.387   3.288  1.00 20.00     0.018 A 
HETATM    2  C2  UNL     1     -34.433   7.062   3.746  1.00 20.00     0.025 C 
HETATM    3  C3  UNL     1     -33.136   5.171   2.739  1.00 20.00     0.084 C 
HETATM    4  C4  UNL     1     -32.569   7.577   1.963  1.00 20.00     0.019 A 
HETATM    5  C5  UNL     1     -34.765   5.953   4.739  1.00 20.00     0.044 C 
HETATM    6  C6  UNL     1     -33.186   6.654   3.001  1.00 20.00    -0.025 A 
HETATM    7  C7  UNL     1     -33.919   6.015   6.005  1.00 20.00     0.021 C 
HETATM    8  S10 UNL     1     -34.403   4.434   3.814  1.00 20.00    -0.164 SA
ENDROOT
BRANCH   4   9
HETATM    9  C8  UNL     1     -33.169   8.894   1.611  1.00 20.00     0.169 C 
BRANCH   9  10
HETATM   10  O9  UNL     1     -33.826   9.449   2.750  1.00 20.00    -0.400 OA
HETATM   11  H24 UNL     1     -34.196  10.299   2.467  1.00 20.00     0.209 HD
ENDBRANCH   9  10
ENDBRANCH   4   9
TORSDOF 2
