REMARK  3 active torsions:
REMARK  status: ('A' for Active; 'I' for Inactive)
REMARK    1  A    between atoms: C3_3  and  O10_10 
REMARK    2  A    between atoms: C4_4  and  C8_8 
REMARK    3  A    between atoms: C4_4  and  C9_9 
ROOT
HETATM    1  C1  UNL     1     -34.959   5.243   6.424  1.00 20.00     0.037 C 
HETATM    2  C2  UNL     1     -33.575   5.886   6.162  1.00 20.00    -0.005 C 
HETATM    3  C3  UNL     1     -35.369   5.607   4.982  1.00 20.00     0.127 C 
HETATM    4  C4  UNL     1     -33.850   5.712   4.624  1.00 20.00    -0.012 C 
HETATM    5  C5  UNL     1     -33.412   7.286   6.740  1.00 20.00     0.011 C 
ENDROOT
BRANCH   4   6
HETATM    6  C8  UNL     1     -33.523   6.898   3.720  1.00 20.00     0.008 C 
HETATM    7  C6  UNL     1     -32.077   7.266   3.794  1.00 20.00     0.006 C 
ENDBRANCH   4   6
BRANCH   4   8
HETATM    8  C9  UNL     1     -33.226   4.427   4.064  1.00 20.00     0.008 C 
HETATM    9  C7  UNL     1     -33.499   4.280   2.605  1.00 20.00     0.006 C 
ENDBRANCH   4   8
BRANCH   3  10
HETATM   10  O10 UNL     1     -36.137   4.617   4.275  1.00 20.00    -0.395 OA
HETATM   11  H28 UNL     1     -36.941   4.487   4.794  1.00 20.00     0.210 HD
ENDBRANCH   3  10
TORSDOF 3
