REMARK  1 active torsions:
REMARK  status: ('A' for Active; 'I' for Inactive)
REMARK    1  A    between atoms: C1_1  and  C5_5 
ROOT
HETATM    1  C2  UNL     1     -33.254   5.343   1.609  1.00 20.00     0.013 C 
HETATM    2  C3  UNL     1     -33.656   6.555   0.771  1.00 20.00     0.009 C 
HETATM    3  C4  UNL     1     -32.192   7.779   2.483  1.00 20.00     0.013 C 
HETATM    4  C5  UNL     1     -33.361   5.626   3.115  1.00 20.00     0.059 C 
HETATM    5  C6  UNL     1     -33.154   7.113   3.476  1.00 20.00    -0.007 C 
HETATM    6  C7  UNL     1     -32.746   7.781   1.034  1.00 20.00    -0.047 C 
HETATM    7  C9  UNL     1     -32.631   7.256   4.907  1.00 20.00     0.011 C 
HETATM    8  C10 UNL     1     -31.559   7.774   0.052  1.00 20.00     0.015 C 
HETATM    9  C11 UNL     1     -33.562   9.064   0.785  1.00 20.00     0.015 C 
ENDROOT
BRANCH   4  10
HETATM   10  C1  UNL     1     -34.709   5.177   3.600  1.00 20.00     0.127 C 
HETATM   11  C8  UNL     1     -34.727   4.078   4.628  1.00 20.00     0.091 C 
HETATM   12  O12 UNL     1     -35.748   5.683   3.179  1.00 20.00    -0.298 OA
ENDBRANCH   4  10
TORSDOF 1
