REMARK  1 active torsions:
REMARK  status: ('A' for Active; 'I' for Inactive)
REMARK    1  A    between atoms: C5_5  and  C10_10 
ROOT
HETATM    1  C1  UNL     1     -33.320   8.325   3.516  1.00 20.00     0.019 C 
HETATM    2  C2  UNL     1     -33.875   4.438   3.135  1.00 20.00     0.018 A 
HETATM    3  C3  UNL     1     -32.767   8.493   4.927  1.00 20.00     0.075 C 
HETATM    4  C4  UNL     1     -33.055   5.780   5.157  1.00 20.00     0.084 C 
HETATM    5  C5  UNL     1     -35.051   5.290   3.516  1.00 20.00     0.010 A 
HETATM    6  C6  UNL     1     -33.627   5.808   3.750  1.00 20.00    -0.020 A 
HETATM    7  C7  UNL     1     -33.059   6.947   2.845  1.00 20.00    -0.038 C 
HETATM    8  C8  UNL     1     -31.546   6.731   2.610  1.00 20.00     0.015 C 
HETATM    9  C9  UNL     1     -33.709   7.021   1.441  1.00 20.00     0.015 C 
HETATM   10  S11 UNL     1     -33.484   7.280   6.065  1.00 20.00    -0.168 SA
ENDROOT
BRANCH   5  11
HETATM   11  C10 UNL     1     -35.961   4.856   4.615  1.00 20.00     0.120 C 
HETATM   12 CL12 UNL     1     -37.132   3.638   4.040  1.00 20.00    -0.130 Cl
ENDBRANCH   5  11
TORSDOF 1
