REMARK  3 active torsions:
REMARK  status: ('A' for Active; 'I' for Inactive)
REMARK    1  A    between atoms: C1_1  and  C5_5 
REMARK    2  A    between atoms: C5_5  and  C7_7 
REMARK    3  A    between atoms: C6_6  and  C7_7 
ROOT
HETATM    1  C5  UNL     1     -32.981   7.070   2.663  1.00 20.00     0.274 C 
HETATM    2  F10 UNL     1     -31.712   6.894   3.136  1.00 20.00    -0.238 F 
ENDROOT
BRANCH   1   3
HETATM    3  C1  UNL     1     -32.782   7.590   1.239  1.00 20.00     0.208 C 
HETATM    4  O8  UNL     1     -32.255   6.764   0.442  1.00 20.00    -0.646 OA
HETATM    5  O9  UNL     1     -33.177   8.771   1.030  1.00 20.00    -0.646 OA
ENDBRANCH   1   3
BRANCH   1   6
HETATM    6  C7  UNL     1     -33.723   5.727   2.759  1.00 20.00     0.029 C 
HETATM    7  C4  UNL     1     -32.774   4.597   2.333  1.00 20.00     0.014 C 
BRANCH   6   8
HETATM    8  C6  UNL     1     -34.369   5.494   4.155  1.00 20.00    -0.016 C 
HETATM    9  C2  UNL     1     -35.677   6.277   4.315  1.00 20.00     0.010 C 
HETATM   10  C3  UNL     1     -34.608   4.020   4.492  1.00 20.00     0.010 C 
ENDBRANCH   6   8
ENDBRANCH   1   6
TORSDOF 3
