REMARK  2 active torsions:
REMARK  status: ('A' for Active; 'I' for Inactive)
REMARK    1  A    between atoms: C6_6  and  C10_10 
REMARK    2  A    between atoms: C7_7  and  C9_9 
ROOT
HETATM    1  C1  UNL     1     -34.628   4.643   2.438  1.00 20.00     0.001 C 
HETATM    2  C2  UNL     1     -33.905   4.125   3.681  1.00 20.00     0.013 C 
HETATM    3  C3  UNL     1     -33.689   5.436   1.532  1.00 20.00     0.010 C 
HETATM    4  C4  UNL     1     -32.286   6.066   3.549  1.00 20.00     0.023 C 
HETATM    5  C5  UNL     1     -33.611   7.929   2.286  1.00 20.00     0.016 A 
HETATM    6  C6  UNL     1     -33.201   5.241   4.467  1.00 20.00     0.094 C 
HETATM    7  C7  UNL     1     -32.332   7.681   1.536  1.00 20.00     0.009 A 
HETATM    8  C8  UNL     1     -32.997   6.544   2.297  1.00 20.00    -0.035 A 
ENDROOT
BRANCH   6   9
HETATM    9  C10 UNL     1     -34.202   6.125   5.216  1.00 20.00     0.391 C 
HETATM   10  F11 UNL     1     -33.549   7.050   5.937  1.00 20.00    -0.171 F 
HETATM   11  F12 UNL     1     -35.011   6.746   4.344  1.00 20.00    -0.171 F 
HETATM   12  F13 UNL     1     -34.948   5.377   6.043  1.00 20.00    -0.171 F 
ENDBRANCH   6   9
BRANCH   7  13
HETATM   13  C9  UNL     1     -32.307   7.754   0.048  1.00 20.00     0.120 C 
HETATM   14 CL14 UNL     1     -32.231   9.446  -0.516  1.00 20.00    -0.130 Cl
ENDBRANCH   7  13
TORSDOF 2
