REMARK  2 active torsions:
REMARK  status: ('A' for Active; 'I' for Inactive)
REMARK    1  A    between atoms: C7_7  and  C10_10 
REMARK    2  A    between atoms: C7_7  and  C11_11 
ROOT
HETATM    1  C1  UNL     1     -33.399   5.775   2.561  1.00 20.00     0.140 C 
HETATM    2  C2  UNL     1     -32.033   8.469   1.949  1.00 20.00     0.001 C 
HETATM    3  C3  UNL     1     -32.656   7.607   0.861  1.00 20.00     0.013 C 
HETATM    4  C4  UNL     1     -33.232   8.943   2.761  1.00 20.00     0.007 C 
HETATM    5  C5  UNL     1     -33.793   6.882   1.564  1.00 20.00     0.061 C 
HETATM    6  C6  UNL     1     -34.205   7.758   2.780  1.00 20.00     0.013 C 
HETATM    7  C7  UNL     1     -34.025   6.535   3.764  1.00 20.00     0.025 C 
HETATM    8  O12 UNL     1     -32.821   4.715   2.444  1.00 20.00    -0.297 OA
ENDROOT
BRANCH   7   9
HETATM    9  C10 UNL     1     -35.355   5.931   4.219  1.00 20.00     0.013 C 
HETATM   10  C8  UNL     1     -35.195   4.511   4.648  1.00 20.00     0.006 C 
ENDBRANCH   7   9
BRANCH   7  11
HETATM   11  C11 UNL     1     -33.078   6.722   4.944  1.00 20.00     0.013 C 
HETATM   12  C9  UNL     1     -33.733   7.457   6.069  1.00 20.00     0.006 C 
ENDBRANCH   7  11
TORSDOF 2
