REMARK  0 active torsions:
REMARK  status: ('A' for Active; 'I' for Inactive)
ROOT
HETATM    1  C1  UNL     1     -34.790   4.317   5.358  1.00 20.00     0.006 C 
HETATM    2  C2  UNL     1     -33.347   4.819   5.181  1.00 20.00     0.038 C 
HETATM    3  C3  UNL     1     -35.009   4.602   3.862  1.00 20.00     0.038 C 
HETATM    4  C4  UNL     1     -31.906   7.577   3.934  1.00 20.00     0.046 C 
HETATM    5  C5  UNL     1     -32.937   5.610   2.706  1.00 20.00     0.058 C 
HETATM    6  C6  UNL     1     -33.247   7.919   4.581  1.00 20.00     0.170 C 
HETATM    7  C7  UNL     1     -32.079   6.878   2.589  1.00 20.00     0.087 C 
HETATM    8  C8  UNL     1     -33.845   5.635   3.943  1.00 20.00     0.062 C 
HETATM    9  O9  UNL     1     -34.271   6.991   4.224  1.00 20.00    -0.380 OA
HETATM   10 CL10 UNL     1     -32.813   8.012   1.404  1.00 20.00    -0.125 Cl
ENDROOT
TORSDOF 0
