REMARK  1 active torsions:
REMARK  status: ('A' for Active; 'I' for Inactive)
REMARK    1  A    between atoms: C4_4  and  C10_10 
ROOT
HETATM    1  C1  UNL     1     -32.659   5.842   1.889  1.00 20.00     0.007 C 
HETATM    2  C2  UNL     1     -34.067   5.429   2.320  1.00 20.00     0.009 C 
HETATM    3  C3  UNL     1     -33.805   6.800   4.438  1.00 20.00     0.013 C 
HETATM    4  C4  UNL     1     -32.232   7.205   2.458  1.00 20.00     0.003 C 
HETATM    5  C5  UNL     1     -32.389   7.212   3.997  1.00 20.00    -0.013 C 
HETATM    6  C6  UNL     1     -34.270   5.447   3.851  1.00 20.00    -0.047 C 
HETATM    7  C7  UNL     1     -32.007   8.554   4.626  1.00 20.00     0.010 C 
HETATM    8  C8  UNL     1     -35.768   5.258   4.158  1.00 20.00     0.015 C 
HETATM    9  C9  UNL     1     -33.505   4.281   4.510  1.00 20.00     0.015 C 
ENDROOT
BRANCH   4  10
HETATM   10  C10 UNL     1     -32.975   8.346   1.752  1.00 20.00     0.119 C 
HETATM   11 CL11 UNL     1     -32.605   8.327   0.022  1.00 20.00    -0.130 Cl
ENDBRANCH   4  10
TORSDOF 1
