REMARK  3 active torsions:
REMARK  status: ('A' for Active; 'I' for Inactive)
REMARK    1  A    between atoms: C2_2  and  C6_6 
REMARK    2  A    between atoms: C3_3  and  C7_7 
REMARK    3  A    between atoms: C6_6  and  O8_8 
ROOT
HETATM    1  C1  UNL     1     -35.215   5.346   5.530  1.00 20.00     0.017 A 
HETATM    2  C2  UNL     1     -33.965   4.596   5.166  1.00 20.00     0.018 A 
HETATM    3  C3  UNL     1     -34.096   6.068   4.796  1.00 20.00    -0.038 A 
HETATM    4  C4  UNL     1     -33.261   7.049   5.576  1.00 20.00     0.015 C 
ENDROOT
BRANCH   2   5
HETATM    5  C6  UNL     1     -34.011   3.506   4.151  1.00 20.00     0.169 C 
BRANCH   5   6
HETATM    6  O8  UNL     1     -34.493   2.303   4.751  1.00 20.00    -0.400 OA
HETATM    7  H22 UNL     1     -34.502   1.633   4.052  1.00 20.00     0.209 HD
ENDBRANCH   5   6
ENDBRANCH   2   5
BRANCH   3   8
HETATM    8  C7  UNL     1     -34.333   6.468   3.364  1.00 20.00     0.005 C 
HETATM    9  C5  UNL     1     -33.150   7.171   2.763  1.00 20.00     0.006 C 
ENDBRANCH   3   8
TORSDOF 3
