REMARK  1 active torsions:
REMARK  status: ('A' for Active; 'I' for Inactive)
REMARK    1  A    between atoms: C4_4  and  C8_8 
ROOT
HETATM    1  C1  UNL     1     -34.689   7.286   2.451  1.00 20.00     0.017 A 
HETATM    2  C2  UNL     1     -33.953   6.393   4.779  1.00 20.00     0.025 C 
HETATM    3  C3  UNL     1     -33.703   4.905   2.798  1.00 20.00     0.084 C 
HETATM    4  C4  UNL     1     -33.199   7.469   2.537  1.00 20.00     0.009 A 
HETATM    5  C5  UNL     1     -34.874   5.259   5.211  1.00 20.00     0.044 C 
HETATM    6  C6  UNL     1     -33.861   6.323   3.278  1.00 20.00    -0.026 A 
HETATM    7  C7  UNL     1     -34.718   4.897   6.677  1.00 20.00     0.021 C 
HETATM    8  S9  UNL     1     -34.403   3.875   4.128  1.00 20.00    -0.164 SA
ENDROOT
BRANCH   4   9
HETATM    9  C8  UNL     1     -32.351   7.251   1.331  1.00 20.00     0.120 C 
HETATM   10 CL10 UNL     1     -32.397   8.666   0.243  1.00 20.00    -0.130 Cl
ENDBRANCH   4   9
TORSDOF 1
