REMARK  1 active torsions:
REMARK  status: ('A' for Active; 'I' for Inactive)
REMARK    1  A    between atoms: C4_4  and  C9_9 
ROOT
HETATM    1  C1  UNL     1     -32.687   6.904   2.691  1.00 20.00     0.131 C 
HETATM    2  C2  UNL     1     -32.945   7.367   4.136  1.00 20.00     0.084 C 
HETATM    3  C3  UNL     1     -33.715   5.754   2.813  1.00 20.00     0.056 C 
HETATM    4  C4  UNL     1     -34.211   6.466   4.121  1.00 20.00     0.011 C 
HETATM    5  C5  UNL     1     -33.100   4.369   2.893  1.00 20.00     0.018 C 
HETATM    6  O10 UNL     1     -31.955   7.290   1.804  1.00 20.00    -0.298 OA
ENDROOT
BRANCH   4   7
HETATM    7  C9  UNL     1     -34.442   5.635   5.370  1.00 20.00    -0.047 C 
HETATM    8  C6  UNL     1     -35.642   4.690   5.164  1.00 20.00     0.015 C 
HETATM    9  C7  UNL     1     -34.733   6.556   6.571  1.00 20.00     0.015 C 
HETATM   10  C8  UNL     1     -33.190   4.791   5.682  1.00 20.00     0.015 C 
ENDBRANCH   4   7
TORSDOF 1
