REMARK  2 active torsions:
REMARK  status: ('A' for Active; 'I' for Inactive)
REMARK    1  A    between atoms: C4_4  and  C7_7 
REMARK    2  A    between atoms: C6_6  and  C9_9 
ROOT
HETATM    1  C5  UNL     1     -31.918   7.404   3.066  1.00 20.00     0.021 A 
HETATM    2  C6  UNL     1     -33.127   7.577   2.194  1.00 20.00     0.009 A 
HETATM    3  C7  UNL     1     -32.888   6.243   2.902  1.00 20.00    -0.012 A 
HETATM    4  C8  UNL     1     -32.434   5.039   2.126  1.00 20.00     0.021 C 
ENDROOT
BRANCH   3   5
HETATM    5  C4  UNL     1     -33.825   5.943   4.106  1.00 20.00    -0.043 A 
HETATM    6  C1  UNL     1     -33.819   6.684   5.323  1.00 20.00     0.015 A 
HETATM    7  C2  UNL     1     -34.748   6.209   6.223  1.00 20.00     0.050 A 
HETATM    8  S10 UNL     1     -35.622   4.874   5.600  1.00 20.00    -0.113 SA
HETATM    9  C3  UNL     1     -34.758   4.929   4.122  1.00 20.00     0.057 A 
ENDBRANCH   3   5
BRANCH   2  10
HETATM   10  C9  UNL     1     -32.974   7.742   0.721  1.00 20.00     0.090 C 
HETATM   11 BR11 UNL     1     -32.532   9.592   0.284  1.00 20.00    -0.096 Br
ENDBRANCH   2  10
TORSDOF 2
