REMARK  2 active torsions:
REMARK  status: ('A' for Active; 'I' for Inactive)
REMARK    1  A    between atoms: C5_5  and  C6_6 
REMARK    2  A    between atoms: C7_7  and  C8_8 
ROOT
HETATM    1  C4  UNL     1     -32.531   5.512   2.797  1.00 20.00     0.011 A 
HETATM    2  C6  UNL     1     -33.060   6.773   3.416  1.00 20.00    -0.005 A 
HETATM    3  C7  UNL     1     -33.124   6.590   1.927  1.00 20.00     0.004 A 
ENDROOT
BRANCH   2   4
HETATM    4  C5  UNL     1     -34.303   6.800   4.293  1.00 20.00    -0.010 C 
HETATM    5  C2  UNL     1     -34.055   6.894   5.820  1.00 20.00     0.005 C 
HETATM    6  C1  UNL     1     -34.181   5.359   5.881  1.00 20.00     0.001 C 
HETATM    7  C3  UNL     1     -34.975   5.430   4.562  1.00 20.00     0.005 C 
ENDBRANCH   2   4
BRANCH   3   8
HETATM    8  C8  UNL     1     -32.247   7.404   1.040  1.00 20.00     0.119 C 
HETATM    9 CL9  UNL     1     -33.045   8.928   0.563  1.00 20.00    -0.130 Cl
ENDBRANCH   3   8
TORSDOF 2
