REMARK  1 active torsions:
REMARK  status: ('A' for Active; 'I' for Inactive)
REMARK    1  A    between atoms: C5_5  and  C7_7 
ROOT
HETATM    1  C1  UNL     1     -33.616   6.604   4.956  1.00 20.00     0.020 C 
HETATM    2  C2  UNL     1     -31.897   7.147   3.093  1.00 20.00     0.017 A 
HETATM    3  C3  UNL     1     -34.909   5.825   5.095  1.00 20.00     0.075 C 
HETATM    4  C4  UNL     1     -33.344   4.991   3.070  1.00 20.00     0.083 C 
HETATM    5  C5  UNL     1     -33.236   7.585   2.574  1.00 20.00     0.005 A 
HETATM    6  C6  UNL     1     -33.143   6.410   3.538  1.00 20.00    -0.026 A 
HETATM    7  S8  UNL     1     -34.586   4.286   4.203  1.00 20.00    -0.168 SA
ENDROOT
BRANCH   5   8
HETATM    8  C7  UNL     1     -33.556   7.428   1.127  1.00 20.00     0.090 C 
HETATM    9 BR9  UNL     1     -32.793   8.898   0.096  1.00 20.00    -0.096 Br
ENDBRANCH   5   8
TORSDOF 1
