REMARK  3 active torsions:
REMARK  status: ('A' for Active; 'I' for Inactive)
REMARK    1  A    between atoms: C4_4  and  C9_9 
REMARK    2  A    between atoms: C5_5  and  C6_6 
REMARK    3  A    between atoms: C9_9  and  O10_10 
ROOT
HETATM    1  C3  UNL     1     -32.978   5.793   6.017  1.00 20.00     0.018 A 
HETATM    2  C4  UNL     1     -34.237   6.604   6.132  1.00 20.00     0.019 A 
HETATM    3  C6  UNL     1     -33.463   6.587   4.815  1.00 20.00    -0.031 A 
HETATM    4  C8  UNL     1     -32.696   7.846   4.486  1.00 20.00     0.016 C 
ENDROOT
BRANCH   3   5
HETATM    5  C5  UNL     1     -33.992   5.859   3.571  1.00 20.00    -0.036 A 
HETATM    6  C1  UNL     1     -33.049   5.477   2.454  1.00 20.00     0.011 A 
HETATM    7  C2  UNL     1     -33.640   4.410   3.330  1.00 20.00     0.011 A 
HETATM    8  C7  UNL     1     -35.379   6.291   3.163  1.00 20.00     0.016 C 
ENDBRANCH   3   5
BRANCH   2   9
HETATM    9  C9  UNL     1     -35.555   5.926   6.283  1.00 20.00     0.169 C 
BRANCH   9  10
HETATM   10  O10 UNL     1     -35.611   4.779   5.436  1.00 20.00    -0.400 OA
HETATM   11  H26 UNL     1     -36.483   4.379   5.573  1.00 20.00     0.209 HD
ENDBRANCH   9  10
ENDBRANCH   2   9
TORSDOF 3
