REMARK  1 active torsions:
REMARK  status: ('A' for Active; 'I' for Inactive)
REMARK    1  A    between atoms: C6_6  and  C11_11 
ROOT
HETATM    1  C1  UNL     1     -33.676   4.414   2.320  1.00 20.00     0.002 C 
HETATM    2  C2  UNL     1     -32.341   5.149   2.425  1.00 20.00     0.010 C 
HETATM    3  C3  UNL     1     -34.671   4.786   3.424  1.00 20.00     0.009 C 
HETATM    4  C4  UNL     1     -31.493   7.539   2.946  1.00 20.00     0.016 A 
HETATM    5  C5  UNL     1     -32.939   6.214   4.644  1.00 20.00     0.018 C 
HETATM    6  C6  UNL     1     -32.922   7.715   2.514  1.00 20.00     0.005 A 
HETATM    7  C7  UNL     1     -32.490   6.429   3.206  1.00 20.00    -0.035 A 
HETATM    8  C8  UNL     1     -34.010   5.095   4.786  1.00 20.00    -0.047 C 
HETATM    9  C9  UNL     1     -35.102   5.561   5.769  1.00 20.00     0.015 C 
HETATM   10  C10 UNL     1     -33.372   3.818   5.368  1.00 20.00     0.015 C 
ENDROOT
BRANCH   6  11
HETATM   11  C11 UNL     1     -33.265   7.780   1.065  1.00 20.00     0.090 C 
HETATM   12 BR12 UNL     1     -32.951   9.576   0.370  1.00 20.00    -0.096 Br
ENDBRANCH   6  11
TORSDOF 1
