REMARK  1 active torsions:
REMARK  status: ('A' for Active; 'I' for Inactive)
REMARK    1  A    between atoms: C4_4  and  C10_10 
ROOT
HETATM    1  C1  UNL     1     -32.723   5.271   2.877  1.00 20.00     0.006 C 
HETATM    2  C2  UNL     1     -33.846   4.545   3.626  1.00 20.00     0.009 C 
HETATM    3  C3  UNL     1     -33.843   6.714   4.948  1.00 20.00     0.013 C 
HETATM    4  C4  UNL     1     -33.127   6.691   2.472  1.00 20.00    -0.001 C 
HETATM    5  C5  UNL     1     -33.451   7.563   3.717  1.00 20.00    -0.013 C 
HETATM    6  C6  UNL     1     -34.640   5.437   4.615  1.00 20.00    -0.047 C 
HETATM    7  C7  UNL     1     -32.337   8.533   4.131  1.00 20.00     0.010 C 
HETATM    8  C8  UNL     1     -36.020   5.799   4.030  1.00 20.00     0.015 C 
HETATM    9  C9  UNL     1     -34.885   4.650   5.919  1.00 20.00     0.015 C 
ENDROOT
BRANCH   4  10
HETATM   10  C10 UNL     1     -32.095   7.293   1.517  1.00 20.00     0.090 C 
HETATM   11 BR11 UNL     1     -32.916   8.732   0.513  1.00 20.00    -0.096 Br
ENDBRANCH   4  10
TORSDOF 1
