REMARK  3 active torsions:
REMARK  status: ('A' for Active; 'I' for Inactive)
REMARK    1  A    between atoms: C2_2  and  C7_7 
REMARK    2  A    between atoms: C3_3  and  C9_9 
REMARK    3  A    between atoms: C8_8  and  C9_9 
ROOT
HETATM    1  C1  UNL     1     -32.884   9.012   1.615  1.00 20.00     0.016 A 
HETATM    2  C2  UNL     1     -32.529   8.017   0.547  1.00 20.00     0.009 A 
HETATM    3  C3  UNL     1     -32.552   7.583   2.012  1.00 20.00    -0.036 A 
HETATM    4  C4  UNL     1     -31.224   7.326   2.674  1.00 20.00     0.016 C 
ENDROOT
BRANCH   3   5
HETATM    5  C9  UNL     1     -33.669   6.712   2.522  1.00 20.00    -0.010 C 
HETATM    6  C6  UNL     1     -33.438   5.245   2.120  1.00 20.00     0.011 C 
BRANCH   5   7
HETATM    7  C8  UNL     1     -33.851   6.789   4.057  1.00 20.00     0.000 C 
HETATM    8  C5  UNL     1     -34.965   5.890   4.575  1.00 20.00     0.005 C 
ENDBRANCH   5   7
ENDBRANCH   3   5
BRANCH   2   9
HETATM    9  C7  UNL     1     -33.556   7.577  -0.439  1.00 20.00     0.120 C 
HETATM   10 CL10 UNL     1     -33.771   8.788  -1.733  1.00 20.00    -0.130 Cl
ENDBRANCH   2   9
TORSDOF 3
