REMARK  1 active torsions:
REMARK  status: ('A' for Active; 'I' for Inactive)
REMARK    1  A    between atoms: C5_5  and  C10_10 
ROOT
HETATM    1  C1  UNL     1     -31.716   7.088   3.082  1.00 20.00     0.017 A 
HETATM    2  C2  UNL     1     -34.214   6.991   3.841  1.00 20.00     0.020 C 
HETATM    3  C3  UNL     1     -33.436   5.571   1.871  1.00 20.00     0.083 C 
HETATM    4  C4  UNL     1     -33.678   4.562   4.468  1.00 20.00     0.082 C 
HETATM    5  C5  UNL     1     -32.513   8.000   2.195  1.00 20.00     0.009 A 
HETATM    6  C6  UNL     1     -33.162   6.744   2.769  1.00 20.00    -0.026 A 
HETATM    7  C7  UNL     1     -34.696   5.715   4.581  1.00 20.00    -0.038 C 
HETATM    8  C8  UNL     1     -34.865   6.050   6.080  1.00 20.00     0.015 C 
HETATM    9  C9  UNL     1     -36.083   5.284   4.056  1.00 20.00     0.015 C 
HETATM   10  S11 UNL     1     -33.317   4.001   2.770  1.00 20.00    -0.168 SA
ENDROOT
BRANCH   5  11
HETATM   11  C10 UNL     1     -32.155   8.151   0.756  1.00 20.00     0.120 C 
HETATM   12 CL12 UNL     1     -33.531   8.783  -0.190  1.00 20.00    -0.130 Cl
ENDBRANCH   5  11
TORSDOF 1
