REMARK  3 active torsions:
REMARK  status: ('A' for Active; 'I' for Inactive)
REMARK    1  A    between atoms: C4_4  and  C6_6 
REMARK    2  A    between atoms: C5_5  and  C8_8 
REMARK    3  A    between atoms: C6_6  and  C9_9 
ROOT
HETATM    1  C3  UNL     1     -31.861   7.172   3.220  1.00 20.00     0.017 A 
HETATM    2  C5  UNL     1     -32.861   7.652   2.208  1.00 20.00     0.009 A 
HETATM    3  C6  UNL     1     -33.243   6.541   3.177  1.00 20.00    -0.032 A 
ENDROOT
BRANCH   3   4
HETATM    4  C4  UNL     1     -33.413   5.085   2.720  1.00 20.00    -0.006 A 
HETATM    5  C1  UNL     1     -32.646   3.947   3.335  1.00 20.00     0.006 A 
HETATM    6  C2  UNL     1     -34.131   4.054   3.546  1.00 20.00     0.006 A 
ENDBRANCH   3   4
BRANCH   3   7
HETATM    7  C9  UNL     1     -34.195   6.931   4.283  1.00 20.00     0.006 C 
HETATM    8  C7  UNL     1     -33.668   6.570   5.640  1.00 20.00     0.006 C 
ENDBRANCH   3   7
BRANCH   2   9
HETATM    9  C8  UNL     1     -32.641   7.396   0.757  1.00 20.00     0.120 C 
HETATM   10 CL10 UNL     1     -33.611   8.505  -0.250  1.00 20.00    -0.130 Cl
ENDBRANCH   2   9
TORSDOF 3
