REMARK  2 active torsions:
REMARK  status: ('A' for Active; 'I' for Inactive)
REMARK    1  A    between atoms: C2_2  and  C7_7 
REMARK    2  A    between atoms: C3_3  and  C8_8 
ROOT
HETATM    1  C1  UNL     1     -33.970   4.255   3.137  1.00 20.00     0.016 A 
HETATM    2  C2  UNL     1     -33.710   5.655   2.658  1.00 20.00     0.009 A 
HETATM    3  C3  UNL     1     -34.592   5.424   3.884  1.00 20.00    -0.036 A 
HETATM    4  C4  UNL     1     -36.071   5.656   3.721  1.00 20.00     0.016 C 
ENDROOT
BRANCH   3   5
HETATM    5  C8  UNL     1     -34.070   5.745   5.259  1.00 20.00    -0.014 C 
HETATM    6  C5  UNL     1     -34.164   7.249   5.554  1.00 20.00     0.010 C 
HETATM    7  C6  UNL     1     -34.820   4.956   6.340  1.00 20.00     0.010 C 
ENDBRANCH   3   5
BRANCH   2   8
HETATM    8  C7  UNL     1     -32.342   6.239   2.749  1.00 20.00     0.120 C 
HETATM    9 CL9  UNL     1     -32.306   7.903   2.104  1.00 20.00    -0.130 Cl
ENDBRANCH   2   8
TORSDOF 2
