REMARK  1 active torsions:
REMARK  status: ('A' for Active; 'I' for Inactive)
REMARK    1  A    between atoms: C1_1  and  C5_5 
ROOT
HETATM    1  C2  UNL     1     -33.607   7.345   3.865  1.00 20.00     0.013 C 
HETATM    2  C3  UNL     1     -33.870   6.683   5.216  1.00 20.00     0.009 C 
HETATM    3  C4  UNL     1     -33.364   4.420   4.168  1.00 20.00     0.013 C 
HETATM    4  C5  UNL     1     -32.579   6.554   3.057  1.00 20.00     0.051 C 
HETATM    5  C6  UNL     1     -33.002   5.092   2.827  1.00 20.00    -0.007 C 
HETATM    6  C7  UNL     1     -34.314   5.208   5.106  1.00 20.00    -0.047 C 
HETATM    7  C8  UNL     1     -34.094   4.917   1.765  1.00 20.00     0.011 C 
HETATM    8  C9  UNL     1     -35.779   5.120   4.641  1.00 20.00     0.015 C 
HETATM    9  C10 UNL     1     -34.248   4.566   6.510  1.00 20.00     0.015 C 
ENDROOT
BRANCH   4  10
HETATM   10  C1  UNL     1     -32.280   7.253   1.764  1.00 20.00     0.236 C 
HETATM   11  O11 UNL     1     -32.846   8.280   1.404  1.00 20.00    -0.306 OA
ENDBRANCH   4  10
TORSDOF 1
