REMARK  2 active torsions:
REMARK  status: ('A' for Active; 'I' for Inactive)
REMARK    1  A    between atoms: C4_4  and  C6_6 
REMARK    2  A    between atoms: C7_7  and  C8_8 
ROOT
HETATM    1  C1  UNL     1     -34.088   4.994   3.700  1.00 20.00     0.034 A 
HETATM    2  C2  UNL     1     -34.935   4.474   4.651  1.00 20.00     0.142 A 
HETATM    3  C3  UNL     1     -34.464   6.499   5.304  1.00 20.00     0.148 A 
HETATM    4  C4  UNL     1     -33.781   6.309   4.125  1.00 20.00    -0.029 A 
HETATM    5  O9  UNL     1     -35.169   5.385   5.631  1.00 20.00    -0.334 OA
ENDROOT
BRANCH   4   6
HETATM    6  C6  UNL     1     -32.885   7.306   3.427  1.00 20.00     0.026 A 
HETATM    7  C5  UNL     1     -31.647   6.834   2.694  1.00 20.00     0.016 A 
HETATM    8  C7  UNL     1     -32.825   7.339   1.914  1.00 20.00     0.005 A 
BRANCH   8   9
HETATM    9  C8  UNL     1     -32.747   8.643   1.198  1.00 20.00     0.090 C 
HETATM   10 BR10 UNL     1     -31.759   8.446  -0.474  1.00 20.00    -0.096 Br
ENDBRANCH   8   9
ENDBRANCH   4   6
TORSDOF 2
