REMARK  3 active torsions:
REMARK  status: ('A' for Active; 'I' for Inactive)
REMARK    1  A    between atoms: C2_2  and  C6_6 
REMARK    2  A    between atoms: C3_3  and  C7_7 
REMARK    3  A    between atoms: C7_7  and  C8_8 
ROOT
HETATM    1  C1  UNL     1     -32.715   5.061   2.822  1.00 20.00     0.016 A 
HETATM    2  C2  UNL     1     -33.157   6.230   1.989  1.00 20.00     0.008 A 
HETATM    3  C3  UNL     1     -33.385   6.245   3.500  1.00 20.00    -0.039 A 
HETATM    4  C4  UNL     1     -32.541   7.128   4.380  1.00 20.00     0.015 C 
ENDROOT
BRANCH   3   5
HETATM    5  C7  UNL     1     -34.800   6.072   3.984  1.00 20.00     0.009 C 
BRANCH   5   6
HETATM    6  C8  UNL     1     -34.926   4.924   4.992  1.00 20.00    -0.004 C 
HETATM    7  C5  UNL     1     -34.040   5.136   6.209  1.00 20.00     0.005 C 
ENDBRANCH   5   6
ENDBRANCH   3   5
BRANCH   2   8
HETATM    8  C6  UNL     1     -32.148   7.098   1.319  1.00 20.00     0.120 C 
HETATM    9 CL9  UNL     1     -32.845   8.684   0.885  1.00 20.00    -0.130 Cl
ENDBRANCH   2   8
TORSDOF 3
