REMARK  2 active torsions:
REMARK  status: ('A' for Active; 'I' for Inactive)
REMARK    1  A    between atoms: C3_3  and  C9_9 
REMARK    2  A    between atoms: C4_4  and  C10_10 
ROOT
HETATM    1  C1  UNL     1     -36.137   5.664   3.530  1.00 20.00     0.131 C 
HETATM    2  C2  UNL     1     -35.415   6.085   2.237  1.00 20.00     0.084 C 
HETATM    3  C3  UNL     1     -35.123   6.429   4.415  1.00 20.00     0.060 C 
HETATM    4  C4  UNL     1     -34.645   7.128   3.094  1.00 20.00     0.011 C 
HETATM    5  O11 UNL     1     -37.116   4.989   3.762  1.00 20.00    -0.298 OA
ENDROOT
BRANCH   4   6
HETATM    6  C10 UNL     1     -33.157   7.238   2.814  1.00 20.00    -0.047 C 
HETATM    7  C6  UNL     1     -32.497   8.198   3.823  1.00 20.00     0.015 C 
HETATM    8  C7  UNL     1     -32.924   7.776   1.389  1.00 20.00     0.015 C 
HETATM    9  C8  UNL     1     -32.492   5.852   2.938  1.00 20.00     0.015 C 
ENDBRANCH   4   6
BRANCH   3  10
HETATM   10  C9  UNL     1     -34.167   5.538   5.187  1.00 20.00     0.008 C 
HETATM   11  C5  UNL     1     -34.872   4.737   6.237  1.00 20.00     0.006 C 
ENDBRANCH   3  10
TORSDOF 2
