REMARK  1 active torsions:
REMARK  status: ('A' for Active; 'I' for Inactive)
REMARK    1  A    between atoms: C6_6  and  C8_8 
ROOT
HETATM    1  C1  UNL     1     -34.405   6.305   5.981  1.00 20.00     0.027 C 
HETATM    2  C2  UNL     1     -33.552   6.717   4.783  1.00 20.00     0.014 C 
HETATM    3  C3  UNL     1     -34.949   6.514   2.601  1.00 20.00     0.018 A 
HETATM    4  C4  UNL     1     -34.405   4.790   6.147  1.00 20.00     0.167 C 
HETATM    5  C5  UNL     1     -34.013   4.428   3.836  1.00 20.00     0.177 C 
HETATM    6  C6  UNL     1     -33.514   6.350   2.180  1.00 20.00     0.011 A 
HETATM    7  C7  UNL     1     -33.950   5.912   3.567  1.00 20.00    -0.014 A 
HETATM    8  O9  UNL     1     -34.867   4.160   4.951  1.00 20.00    -0.390 OA
ENDROOT
BRANCH   6   9
HETATM    9  C8  UNL     1     -32.656   7.546   1.947  1.00 20.00     0.120 C 
HETATM   10 CL10 UNL     1     -32.957   8.254   0.336  1.00 20.00    -0.130 Cl
ENDBRANCH   6   9
TORSDOF 1
