REMARK  1 active torsions:
REMARK  status: ('A' for Active; 'I' for Inactive)
REMARK    1  A    between atoms: C5_5  and  C10_10 
ROOT
HETATM    1  C1  UNL     1     -33.167   5.170   2.375  1.00 20.00     0.011 C 
HETATM    2  C2  UNL     1     -33.623   4.262   3.519  1.00 20.00     0.009 C 
HETATM    3  C3  UNL     1     -31.658   7.265   2.799  1.00 20.00     0.016 A 
HETATM    4  C4  UNL     1     -33.543   6.487   4.429  1.00 20.00     0.018 C 
HETATM    5  C5  UNL     1     -32.944   7.800   2.238  1.00 20.00     0.005 A 
HETATM    6  C6  UNL     1     -32.948   6.509   3.036  1.00 20.00    -0.035 A 
HETATM    7  C7  UNL     1     -34.391   5.196   4.472  1.00 20.00    -0.047 C 
HETATM    8  C8  UNL     1     -35.817   5.461   3.962  1.00 20.00     0.015 C 
HETATM    9  C9  UNL     1     -34.459   4.614   5.885  1.00 20.00     0.015 C 
ENDROOT
BRANCH   5  10
HETATM   10  C10 UNL     1     -33.157   7.823   0.763  1.00 20.00     0.090 C 
HETATM   11 BR11 UNL     1     -32.287   9.381  -0.027  1.00 20.00    -0.096 Br
ENDBRANCH   5  10
TORSDOF 1
