REMARK  2 active torsions:
REMARK  status: ('A' for Active; 'I' for Inactive)
REMARK    1  A    between atoms: C3_3  and  O9_9 
REMARK    2  A    between atoms: C4_4  and  C8_8 
ROOT
HETATM    1  C1  UNL     1     -34.263   6.266   5.368  1.00 20.00     0.037 C 
HETATM    2  C2  UNL     1     -33.449   7.125   4.370  1.00 20.00    -0.006 C 
HETATM    3  C3  UNL     1     -34.935   5.582   4.156  1.00 20.00     0.127 C 
HETATM    4  C4  UNL     1     -33.685   5.992   3.305  1.00 20.00    -0.015 C 
HETATM    5  C5  UNL     1     -32.038   7.489   4.790  1.00 20.00     0.011 C 
HETATM    6  C6  UNL     1     -32.599   4.917   3.205  1.00 20.00     0.018 C 
ENDROOT
BRANCH   4   7
HETATM    7  C8  UNL     1     -34.042   6.530   1.920  1.00 20.00     0.007 C 
HETATM    8  C7  UNL     1     -32.961   7.403   1.373  1.00 20.00     0.006 C 
ENDBRANCH   4   7
BRANCH   3   9
HETATM    9  O9  UNL     1     -35.196   4.173   4.283  1.00 20.00    -0.395 OA
HETATM   10  H25 UNL     1     -35.784   4.082   5.044  1.00 20.00     0.210 HD
ENDBRANCH   3   9
TORSDOF 2
