REMARK  2 active torsions:
REMARK  status: ('A' for Active; 'I' for Inactive)
REMARK    1  A    between atoms: C6_6  and  C7_7 
REMARK    2  A    between atoms: C8_8  and  C9_9 
ROOT
HETATM    1  C1  UNL     1     -33.879   6.750   5.785  1.00 20.00     0.031 C 
HETATM    2  C2  UNL     1     -33.646   4.965   4.038  1.00 20.00     0.031 C 
HETATM    3  C4  UNL     1     -35.080   5.976   6.315  1.00 20.00     0.168 C 
HETATM    4  C5  UNL     1     -34.861   4.291   4.665  1.00 20.00     0.168 C 
HETATM    5  C6  UNL     1     -33.675   6.477   4.291  1.00 20.00    -0.006 C 
HETATM    6  O10 UNL     1     -34.935   4.580   6.061  1.00 20.00    -0.391 OA
ENDROOT
BRANCH   5   7
HETATM    7  C7  UNL     1     -32.402   7.145   3.778  1.00 20.00    -0.005 A 
HETATM    8  C3  UNL     1     -32.429   8.589   3.377  1.00 20.00     0.011 A 
HETATM    9  C8  UNL     1     -32.228   7.522   2.333  1.00 20.00     0.004 A 
BRANCH   9  10
HETATM   10  C9  UNL     1     -33.272   7.275   1.300  1.00 20.00     0.119 C 
HETATM   11 CL11 UNL     1     -33.180   8.480  -0.014  1.00 20.00    -0.130 Cl
ENDBRANCH   9  10
ENDBRANCH   5   7
TORSDOF 2
