REMARK  1 active torsions:
REMARK  status: ('A' for Active; 'I' for Inactive)
REMARK    1  A    between atoms: C5_5  and  C7_7 
ROOT
HETATM    1  C1  UNL     1     -33.716   6.994   4.963  1.00 20.00     0.038 C 
HETATM    2  C2  UNL     1     -31.854   6.895   3.147  1.00 20.00     0.018 A 
HETATM    3  C3  UNL     1     -34.841   6.018   5.260  1.00 20.00     0.168 C 
HETATM    4  C4  UNL     1     -33.758   5.127   3.434  1.00 20.00     0.177 C 
HETATM    5  C5  UNL     1     -33.061   7.491   2.478  1.00 20.00     0.007 A 
HETATM    6  C6  UNL     1     -33.238   6.518   3.629  1.00 20.00    -0.012 A 
HETATM    7  O8  UNL     1     -34.418   4.781   4.666  1.00 20.00    -0.390 OA
ENDROOT
BRANCH   5   8
HETATM    8  C7  UNL     1     -33.381   7.125   1.070  1.00 20.00     0.090 C 
HETATM    9 BR9  UNL     1     -32.303   8.177  -0.171  1.00 20.00    -0.096 Br
ENDBRANCH   5   8
TORSDOF 1
