REMARK  1 active torsions:
REMARK  status: ('A' for Active; 'I' for Inactive)
REMARK    1  A    between atoms: C6_6  and  C8_8 
ROOT
HETATM    1  C1  UNL     1     -34.536   4.392   4.760  1.00 20.00     0.011 C 
HETATM    2  C2  UNL     1     -33.541   4.733   3.653  1.00 20.00     0.011 C 
HETATM    3  C3  UNL     1     -34.477   6.838   2.438  1.00 20.00     0.017 A 
HETATM    4  C4  UNL     1     -34.185   5.047   6.090  1.00 20.00     0.074 C 
HETATM    5  C5  UNL     1     -33.016   7.039   4.580  1.00 20.00     0.083 C 
HETATM    6  C6  UNL     1     -33.055   6.643   1.991  1.00 20.00     0.009 A 
HETATM    7  C7  UNL     1     -33.473   6.226   3.395  1.00 20.00    -0.027 A 
HETATM    8  S9  UNL     1     -34.180   6.860   5.960  1.00 20.00    -0.168 SA
ENDROOT
BRANCH   6   9
HETATM    9  C8  UNL     1     -32.185   7.821   1.718  1.00 20.00     0.120 C 
HETATM   10 CL10 UNL     1     -32.509   8.504   0.100  1.00 20.00    -0.130 Cl
ENDBRANCH   6   9
TORSDOF 1
