REMARK  2 active torsions:
REMARK  status: ('A' for Active; 'I' for Inactive)
REMARK    1  A    between atoms: C2_2  and  C6_6 
REMARK    2  A    between atoms: C7_7  and  C10_10 
ROOT
HETATM    1  C1  UNL     1     -33.762   4.106   3.246  1.00 20.00     0.022 A 
HETATM    2  C2  UNL     1     -33.331   5.453   3.420  1.00 20.00    -0.040 A 
HETATM    3  C3  UNL     1     -34.444   3.635   4.345  1.00 20.00    -0.020 A 
HETATM    4  C4  UNL     1     -33.702   5.960   4.646  1.00 20.00    -0.014 A 
HETATM    5  C8  UNL     1     -35.044   2.299   4.553  1.00 20.00     0.056 C 
HETATM    6  C9  UNL     1     -33.451   7.306   5.210  1.00 20.00     0.057 C 
HETATM    7  S11 UNL     1     -34.564   4.814   5.581  1.00 20.00    -0.100 SA
ENDROOT
BRANCH   2   8
HETATM    8  C6  UNL     1     -32.560   6.225   2.375  1.00 20.00     0.025 A 
HETATM    9  C5  UNL     1     -33.102   6.356   0.968  1.00 20.00     0.016 A 
HETATM   10  C7  UNL     1     -33.088   7.553   1.872  1.00 20.00     0.008 A 
BRANCH  10  11
HETATM   11  C10 UNL     1     -32.149   8.679   1.609  1.00 20.00     0.119 C 
HETATM   12 CL12 UNL     1     -32.764   9.747   0.317  1.00 20.00    -0.130 Cl
ENDBRANCH  10  11
ENDBRANCH   2   8
TORSDOF 2
