REMARK  3 active torsions:
REMARK  status: ('A' for Active; 'I' for Inactive)
REMARK    1  A    between atoms: C2_2  and  C7_7 
REMARK    2  A    between atoms: C3_3  and  C9_9 
REMARK    3  A    between atoms: C8_8  and  C9_9 
ROOT
HETATM    1  C1  UNL     1     -31.738   6.583   2.649  1.00 20.00     0.016 A 
HETATM    2  C2  UNL     1     -32.948   6.828   1.794  1.00 20.00     0.009 A 
HETATM    3  C3  UNL     1     -33.076   5.992   3.066  1.00 20.00    -0.036 A 
HETATM    4  C4  UNL     1     -33.274   4.509   2.898  1.00 20.00     0.016 C 
ENDROOT
BRANCH   3   5
HETATM    5  C9  UNL     1     -33.757   6.568   4.280  1.00 20.00    -0.010 C 
HETATM    6  C6  UNL     1     -32.842   6.467   5.513  1.00 20.00     0.011 C 
BRANCH   5   7
HETATM    7  C8  UNL     1     -35.105   5.883   4.608  1.00 20.00     0.000 C 
HETATM    8  C5  UNL     1     -36.133   6.017   3.494  1.00 20.00     0.005 C 
ENDBRANCH   5   7
ENDBRANCH   3   5
BRANCH   2   9
HETATM    9  C7  UNL     1     -33.516   8.200   1.671  1.00 20.00     0.120 C 
HETATM   10 CL10 UNL     1     -32.581   9.187   0.514  1.00 20.00    -0.130 Cl
ENDBRANCH   2   9
TORSDOF 3
