REMARK  1 active torsions:
REMARK  status: ('A' for Active; 'I' for Inactive)
REMARK    1  A    between atoms: C6_6  and  C8_8 
ROOT
HETATM    1  C1  UNL     1     -33.236   4.109   2.961  1.00 20.00     0.011 C 
HETATM    2  C2  UNL     1     -33.194   5.412   2.163  1.00 20.00     0.011 C 
HETATM    3  C3  UNL     1     -31.669   7.055   3.486  1.00 20.00     0.017 A 
HETATM    4  C4  UNL     1     -34.393   4.053   3.952  1.00 20.00     0.074 C 
HETATM    5  C5  UNL     1     -34.197   6.795   4.042  1.00 20.00     0.083 C 
HETATM    6  C6  UNL     1     -32.446   7.904   2.518  1.00 20.00     0.009 A 
HETATM    7  C7  UNL     1     -33.060   6.621   3.066  1.00 20.00    -0.027 A 
HETATM    8  S9  UNL     1     -34.284   5.388   5.179  1.00 20.00    -0.168 SA
ENDROOT
BRANCH   6   9
HETATM    9  C8  UNL     1     -31.987   8.049   1.108  1.00 20.00     0.120 C 
HETATM   10 CL10 UNL     1     -33.319   8.582   0.045  1.00 20.00    -0.130 Cl
ENDBRANCH   6   9
TORSDOF 1
