REMARK  1 active torsions:
REMARK  status: ('A' for Active; 'I' for Inactive)
REMARK    1  A    between atoms: C5_5  and  C10_10 
ROOT
HETATM    1  C1  UNL     1     -31.687   7.630   2.210  1.00 20.00     0.017 A 
HETATM    2  C2  UNL     1     -33.142   5.733   3.177  1.00 20.00     0.020 C 
HETATM    3  C3  UNL     1     -33.314   8.118   4.163  1.00 20.00     0.083 C 
HETATM    4  C4  UNL     1     -34.482   5.945   5.372  1.00 20.00     0.082 C 
HETATM    5  C5  UNL     1     -33.044   7.787   1.592  1.00 20.00     0.005 A 
HETATM    6  C6  UNL     1     -32.918   7.230   3.007  1.00 20.00    -0.026 A 
HETATM    7  C7  UNL     1     -34.443   5.372   3.931  1.00 20.00    -0.038 C 
HETATM    8  C8  UNL     1     -35.673   5.855   3.134  1.00 20.00     0.015 C 
HETATM    9  C9  UNL     1     -34.532   3.831   4.015  1.00 20.00     0.015 C 
HETATM   10  S11 UNL     1     -33.265   7.251   5.741  1.00 20.00    -0.168 SA
ENDROOT
BRANCH   5  11
HETATM   11  C10 UNL     1     -33.579   9.149   1.308  1.00 20.00     0.090 C 
HETATM   12 BR12 UNL     1     -32.382  10.117   0.109  1.00 20.00    -0.096 Br
ENDBRANCH   5  11
TORSDOF 1
