REMARK  4 active torsions:
REMARK  status: ('A' for Active; 'I' for Inactive)
REMARK    1  A    between atoms: C2_2  and  C6_6 
REMARK    2  A    between atoms: C3_3  and  C7_7 
REMARK    3  A    between atoms: C3_3  and  C8_8 
REMARK    4  A    between atoms: C8_8  and  O9_9 
ROOT
HETATM    1  C1  UNL     1     -33.937   4.562   2.081  1.00 20.00     0.018 A 
HETATM    2  C2  UNL     1     -32.938   5.456   2.758  1.00 20.00     0.011 A 
HETATM    3  C3  UNL     1     -34.012   4.763   3.586  1.00 20.00    -0.014 A 
ENDROOT
BRANCH   3   4
HETATM    4  C7  UNL     1     -33.571   3.626   4.471  1.00 20.00     0.007 C 
HETATM    5  C4  UNL     1     -34.378   2.380   4.247  1.00 20.00     0.006 C 
ENDBRANCH   3   4
BRANCH   3   6
HETATM    6  C8  UNL     1     -35.168   5.554   4.137  1.00 20.00     0.176 C 
BRANCH   6   7
HETATM    7  O9  UNL     1     -34.843   6.014   5.444  1.00 20.00    -0.395 OA
HETATM    8  C5  UNL     1     -34.016   7.168   5.399  1.00 20.00     0.201 C 
ENDBRANCH   6   7
ENDBRANCH   3   6
BRANCH   2   9
HETATM    9  C6  UNL     1     -32.945   6.924   2.500  1.00 20.00     0.120 C 
HETATM   10 CL10 UNL     1     -32.667   7.278   0.772  1.00 20.00    -0.130 Cl
ENDBRANCH   2   9
TORSDOF 4
