REMARK  2 active torsions:
REMARK  status: ('A' for Active; 'I' for Inactive)
REMARK    1  A    between atoms: C2_2  and  C6_6 
REMARK    2  A    between atoms: C3_3  and  C7_7 
ROOT
HETATM    1  C1  UNL     1     -31.675   6.877   3.261  1.00 20.00     0.011 A 
HETATM    2  C2  UNL     1     -32.484   7.071   2.005  1.00 20.00     0.004 A 
HETATM    3  C3  UNL     1     -33.074   6.323   3.179  1.00 20.00    -0.006 A 
ENDROOT
BRANCH   3   4
HETATM    4  C7  UNL     1     -34.158   6.892   4.027  1.00 20.00    -0.018 C 
HETATM    5  C4  UNL     1     -35.357   5.933   4.146  1.00 20.00     0.010 C 
HETATM    6  C5  UNL     1     -33.655   7.250   5.438  1.00 20.00     0.010 C 
ENDBRANCH   3   4
BRANCH   2   7
HETATM    7  C6  UNL     1     -32.946   8.432   1.612  1.00 20.00     0.119 C 
HETATM    8 CL8  UNL     1     -33.347   8.502  -0.127  1.00 20.00    -0.130 Cl
ENDBRANCH   2   7
TORSDOF 2
