REMARK  4 active torsions:
REMARK  status: ('A' for Active; 'I' for Inactive)
REMARK    1  A    between atoms: C4_4  and  C6_6 
REMARK    2  A    between atoms: C5_5  and  C8_8 
REMARK    3  A    between atoms: C6_6  and  C9_9 
REMARK    4  A    between atoms: C9_9  and  O10_10 
ROOT
HETATM    1  C3  UNL     1     -31.621   6.907   3.085  1.00 20.00     0.019 A 
HETATM    2  C5  UNL     1     -32.242   7.486   1.846  1.00 20.00     0.011 A 
HETATM    3  C6  UNL     1     -33.116   6.748   2.859  1.00 20.00    -0.010 A 
ENDROOT
BRANCH   3   4
HETATM    4  C4  UNL     1     -33.699   5.377   2.482  1.00 20.00    -0.004 A 
HETATM    5  C1  UNL     1     -32.835   4.183   2.182  1.00 20.00     0.006 A 
HETATM    6  C2  UNL     1     -33.685   4.203   3.422  1.00 20.00     0.006 A 
ENDBRANCH   3   4
BRANCH   3   7
HETATM    7  C9  UNL     1     -34.024   7.552   3.757  1.00 20.00     0.177 C 
BRANCH   7   8
HETATM    8  O10 UNL     1     -34.153   6.887   5.006  1.00 20.00    -0.395 OA
HETATM    9  C7  UNL     1     -33.031   7.132   5.845  1.00 20.00     0.201 C 
ENDBRANCH   7   8
ENDBRANCH   3   7
BRANCH   2  10
HETATM   10  C8  UNL     1     -32.300   8.963   1.650  1.00 20.00     0.120 C 
HETATM   11 CL11 UNL     1     -33.076   9.379   0.097  1.00 20.00    -0.130 Cl
ENDBRANCH   2  10
TORSDOF 4
