REMARK  2 active torsions:
REMARK  status: ('A' for Active; 'I' for Inactive)
REMARK    1  A    between atoms: C5_5  and  C8_8 
REMARK    2  A    between atoms: C9_9  and  C10_10 
ROOT
HETATM    1  C1  UNL     1     -32.987   7.896   3.722  1.00 20.00     0.009 A 
HETATM    2  C2  UNL     1     -33.112   5.999   2.231  1.00 20.00     0.009 A 
HETATM    3  C3  UNL     1     -32.879   8.751   2.626  1.00 20.00     0.019 A 
HETATM    4  C4  UNL     1     -33.005   6.854   1.135  1.00 20.00     0.019 A 
HETATM    5  C5  UNL     1     -33.103   6.520   3.525  1.00 20.00    -0.053 A 
HETATM    6  C6  UNL     1     -32.889   8.230   1.332  1.00 20.00     0.011 A 
HETATM    7 BR12 UNL     1     -32.743   9.388  -0.154  1.00 20.00    -0.051 Br
ENDROOT
BRANCH   5   8
HETATM    8  C8  UNL     1     -33.220   5.593   4.713  1.00 20.00     0.024 A 
HETATM    9  C7  UNL     1     -32.686   4.179   4.632  1.00 20.00     0.016 A 
HETATM   10  C9  UNL     1     -34.167   4.413   4.662  1.00 20.00     0.008 A 
BRANCH  10  11
HETATM   11  C10 UNL     1     -34.961   4.041   5.866  1.00 20.00     0.119 C 
HETATM   12 CL11 UNL     1     -35.323   2.292   5.887  1.00 20.00    -0.130 Cl
ENDBRANCH  10  11
ENDBRANCH   5   8
TORSDOF 2
