REMARK  2 active torsions:
REMARK  status: ('A' for Active; 'I' for Inactive)
REMARK    1  A    between atoms: C5_5  and  C6_6 
REMARK    2  A    between atoms: C7_7  and  C8_8 
ROOT
HETATM    1  C4  UNL     1     -32.540   5.435   2.599  1.00 20.00     0.011 A 
HETATM    2  C6  UNL     1     -33.876   6.115   2.654  1.00 20.00    -0.005 A 
HETATM    3  C7  UNL     1     -32.637   6.925   2.401  1.00 20.00     0.000 A 
ENDROOT
BRANCH   2   4
HETATM    4  C5  UNL     1     -34.683   6.235   3.930  1.00 20.00    -0.010 C 
HETATM    5  C2  UNL     1     -33.885   6.484   5.236  1.00 20.00     0.005 C 
HETATM    6  C1  UNL     1     -34.906   5.571   5.946  1.00 20.00     0.001 C 
HETATM    7  C3  UNL     1     -35.160   4.909   4.577  1.00 20.00     0.005 C 
ENDBRANCH   2   4
BRANCH   3   8
HETATM    8  C8  UNL     1     -32.400   7.519   1.056  1.00 20.00     0.090 C 
HETATM    9 BR9  UNL     1     -33.230   9.281   0.931  1.00 20.00    -0.096 Br
ENDBRANCH   3   8
TORSDOF 2
