REMARK  1 active torsions:
REMARK  status: ('A' for Active; 'I' for Inactive)
REMARK    1  A    between atoms: C5_5  and  C10_10 
ROOT
HETATM    1  C1  UNL     1     -33.385   4.430   5.776  1.00 20.00     0.002 C 
HETATM    2  C2  UNL     1     -32.953   3.862   4.430  1.00 20.00     0.011 C 
HETATM    3  C3  UNL     1     -34.835   4.825   5.541  1.00 20.00     0.010 C 
HETATM    4  C4  UNL     1     -34.123   3.830   2.121  1.00 20.00     0.017 A 
HETATM    5  C5  UNL     1     -33.129   4.949   2.055  1.00 20.00     0.005 A 
HETATM    6  C6  UNL     1     -33.787   4.599   3.390  1.00 20.00    -0.029 A 
HETATM    7  C7  UNL     1     -34.833   5.461   4.123  1.00 20.00    -0.040 C 
HETATM    8  C8  UNL     1     -36.252   5.393   3.552  1.00 20.00     0.015 C 
HETATM    9  C9  UNL     1     -34.392   6.931   4.233  1.00 20.00     0.015 C 
ENDROOT
BRANCH   5  10
HETATM   10  C10 UNL     1     -33.444   6.140   1.221  1.00 20.00     0.090 C 
HETATM   11 BR11 UNL     1     -32.014   7.463   1.349  1.00 20.00    -0.096 Br
ENDBRANCH   5  10
TORSDOF 1
