REMARK  1 active torsions:
REMARK  status: ('A' for Active; 'I' for Inactive)
REMARK    1  A    between atoms: C5_5  and  C7_7 
ROOT
HETATM    1  C1  UNL     1     -34.884   5.447   6.331  1.00 20.00     0.002 C 
HETATM    2  C2  UNL     1     -34.000   6.564   5.749  1.00 20.00     0.010 C 
HETATM    3  C3  UNL     1     -34.564   4.610   5.081  1.00 20.00     0.010 C 
HETATM    4  C4  UNL     1     -34.988   6.517   3.285  1.00 20.00     0.016 A 
HETATM    5  C5  UNL     1     -33.537   6.124   3.151  1.00 20.00     0.005 A 
HETATM    6  C6  UNL     1     -34.256   5.912   4.443  1.00 20.00    -0.036 A 
ENDROOT
BRANCH   5   7
HETATM    7  C7  UNL     1     -32.489   7.175   3.017  1.00 20.00     0.090 C 
HETATM    8 BR8  UNL     1     -32.378   7.798   1.171  1.00 20.00    -0.096 Br
ENDBRANCH   5   7
TORSDOF 1
