REMARK  1 active torsions:
REMARK  status: ('A' for Active; 'I' for Inactive)
REMARK    1  A    between atoms: C6_6  and  C8_8 
ROOT
HETATM    1  C1  UNL     1     -33.361   6.742   6.124  1.00 20.00     0.027 C 
HETATM    2  C2  UNL     1     -33.051   7.238   4.713  1.00 20.00     0.014 C 
HETATM    3  C3  UNL     1     -32.401   5.226   3.202  1.00 20.00     0.018 A 
HETATM    4  C4  UNL     1     -34.797   6.239   6.214  1.00 20.00     0.167 C 
HETATM    5  C5  UNL     1     -34.860   5.679   3.910  1.00 20.00     0.177 C 
HETATM    6  C6  UNL     1     -32.951   6.271   2.270  1.00 20.00     0.011 A 
HETATM    7  C7  UNL     1     -33.455   6.192   3.701  1.00 20.00    -0.014 A 
HETATM    8  O9  UNL     1     -35.022   5.208   5.251  1.00 20.00    -0.390 OA
ENDROOT
BRANCH   6   9
HETATM    9  C8  UNL     1     -32.081   7.380   1.785  1.00 20.00     0.120 C 
HETATM   10 CL10 UNL     1     -33.055   8.752   1.187  1.00 20.00    -0.130 Cl
ENDBRANCH   6   9
TORSDOF 1
