REMARK  3 active torsions:
REMARK  status: ('A' for Active; 'I' for Inactive)
REMARK    1  A    between atoms: C4_4  and  C6_6 
REMARK    2  A    between atoms: C5_5  and  C8_8 
REMARK    3  A    between atoms: C6_6  and  C9_9 
ROOT
HETATM    1  C3  UNL     1     -32.632   5.494   2.637  1.00 20.00     0.017 A 
HETATM    2  C5  UNL     1     -33.254   6.712   2.015  1.00 20.00     0.009 A 
HETATM    3  C6  UNL     1     -33.044   6.655   3.527  1.00 20.00    -0.032 A 
ENDROOT
BRANCH   3   4
HETATM    4  C4  UNL     1     -34.269   6.527   4.446  1.00 20.00    -0.006 A 
HETATM    5  C1  UNL     1     -35.188   5.337   4.413  1.00 20.00     0.006 A 
HETATM    6  C2  UNL     1     -34.314   5.578   5.612  1.00 20.00     0.006 A 
ENDBRANCH   3   4
BRANCH   3   7
HETATM    7  C9  UNL     1     -31.928   7.469   4.137  1.00 20.00     0.006 C 
HETATM    8  C7  UNL     1     -32.442   8.587   4.995  1.00 20.00     0.006 C 
ENDBRANCH   3   7
BRANCH   2   9
HETATM    9  C8  UNL     1     -32.454   7.594   1.119  1.00 20.00     0.120 C 
HETATM   10 CL10 UNL     1     -33.197   9.210   0.972  1.00 20.00    -0.130 Cl
ENDBRANCH   2   9
TORSDOF 3
