REMARK  2 active torsions:
REMARK  status: ('A' for Active; 'I' for Inactive)
REMARK    1  A    between atoms: C6_6  and  C8_8 
REMARK    2  A    between atoms: C8_8  and  O9_9 
ROOT
HETATM    1  C1  UNL     1     -33.437   4.220   3.148  1.00 20.00     0.011 C 
HETATM    2  C2  UNL     1     -33.431   5.410   2.192  1.00 20.00     0.011 C 
HETATM    3  C3  UNL     1     -31.719   7.124   3.150  1.00 20.00     0.018 A 
HETATM    4  C4  UNL     1     -34.498   4.342   4.235  1.00 20.00     0.074 C 
HETATM    5  C5  UNL     1     -34.191   7.070   3.959  1.00 20.00     0.083 C 
HETATM    6  C6  UNL     1     -32.521   7.820   2.085  1.00 20.00     0.019 A 
HETATM    7  C7  UNL     1     -33.161   6.715   2.916  1.00 20.00    -0.026 A 
HETATM    8  S10 UNL     1     -34.230   5.814   5.267  1.00 20.00    -0.168 SA
ENDROOT
BRANCH   6   9
HETATM    9  C8  UNL     1     -32.877   9.259   2.233  1.00 20.00     0.169 C 
BRANCH   9  10
HETATM   10  O9  UNL     1     -33.976   9.578   1.380  1.00 20.00    -0.400 OA
HETATM   11  H24 UNL     1     -34.164  10.519   1.515  1.00 20.00     0.209 HD
ENDBRANCH   9  10
ENDBRANCH   6   9
TORSDOF 2
