REMARK  2 active torsions:
REMARK  status: ('A' for Active; 'I' for Inactive)
REMARK    1  A    between atoms: C5_5  and  C6_6 
REMARK    2  A    between atoms: C7_7  and  C8_8 
ROOT
HETATM    1  C4  UNL     1     -32.253   5.616   3.173  1.00 20.00     0.011 A 
HETATM    2  C6  UNL     1     -33.645   6.177   3.156  1.00 20.00    -0.005 A 
HETATM    3  C7  UNL     1     -32.476   7.074   2.868  1.00 20.00     0.004 A 
ENDROOT
BRANCH   2   4
HETATM    4  C5  UNL     1     -34.489   6.312   4.406  1.00 20.00    -0.010 C 
HETATM    5  C2  UNL     1     -33.747   6.720   5.705  1.00 20.00     0.005 C 
HETATM    6  C1  UNL     1     -34.701   5.771   6.460  1.00 20.00     0.001 C 
HETATM    7  C3  UNL     1     -34.863   4.996   5.136  1.00 20.00     0.005 C 
ENDBRANCH   2   4
BRANCH   3   8
HETATM    8  C8  UNL     1     -32.259   7.593   1.489  1.00 20.00     0.119 C 
HETATM    9 CL9  UNL     1     -33.118   9.138   1.236  1.00 20.00    -0.130 Cl
ENDBRANCH   3   8
TORSDOF 2
