REMARK  2 active torsions:
REMARK  status: ('A' for Active; 'I' for Inactive)
REMARK    1  A    between atoms: C4_4  and  C6_6 
REMARK    2  A    between atoms: C7_7  and  C8_8 
ROOT
HETATM    1  C1  UNL     1     -34.851   5.181   4.124  1.00 20.00     0.015 A 
HETATM    2  C2  UNL     1     -35.409   5.558   5.325  1.00 20.00     0.050 A 
HETATM    3  C3  UNL     1     -33.537   7.016   4.676  1.00 20.00     0.057 A 
HETATM    4  C4  UNL     1     -33.767   6.025   3.748  1.00 20.00    -0.047 A 
HETATM    5  S9  UNL     1     -34.626   6.926   5.995  1.00 20.00    -0.113 SA
ENDROOT
BRANCH   4   6
HETATM    6  C6  UNL     1     -32.950   5.850   2.455  1.00 20.00     0.024 A 
HETATM    7  C5  UNL     1     -31.736   6.728   2.246  1.00 20.00     0.016 A 
HETATM    8  C7  UNL     1     -32.951   6.930   1.390  1.00 20.00     0.004 A 
BRANCH   8   9
HETATM    9  C8  UNL     1     -33.755   8.179   1.517  1.00 20.00     0.090 C 
HETATM   10 BR10 UNL     1     -32.881   9.651   0.579  1.00 20.00    -0.096 Br
ENDBRANCH   8   9
ENDBRANCH   4   6
TORSDOF 2
