REMARK  3 active torsions:
REMARK  status: ('A' for Active; 'I' for Inactive)
REMARK    1  A    between atoms: C1_1  and  C6_6 
REMARK    2  A    between atoms: C6_6  and  C7_7 
REMARK    3  A    between atoms: C7_7  and  C8_8 
ROOT
HETATM    1  C2  UNL     1     -32.006   7.537   4.060  1.00 20.00     0.014 C 
HETATM    2  C7  UNL     1     -33.032   7.414   2.917  1.00 20.00     0.034 C 
ENDROOT
BRANCH   2   3
HETATM    3  C6  UNL     1     -33.595   5.979   2.897  1.00 20.00     0.275 C 
HETATM    4  F11 UNL     1     -32.596   5.110   2.577  1.00 20.00    -0.237 F 
BRANCH   3   5
HETATM    5  C1  UNL     1     -34.211   5.461   4.204  1.00 20.00     0.208 C 
HETATM    6  O9  UNL     1     -34.787   6.329   4.918  1.00 20.00    -0.646 OA
HETATM    7  O10 UNL     1     -34.044   4.228   4.423  1.00 20.00    -0.646 OA
ENDBRANCH   3   5
ENDBRANCH   2   3
BRANCH   2   8
HETATM    8  C8  UNL     1     -32.468   7.889   1.522  1.00 20.00    -0.045 C 
HETATM    9  C3  UNL     1     -33.257   9.116   1.011  1.00 20.00     0.015 C 
HETATM   10  C4  UNL     1     -30.994   8.331   1.668  1.00 20.00     0.015 C 
HETATM   11  C5  UNL     1     -32.536   6.794   0.442  1.00 20.00     0.015 C 
ENDBRANCH   2   8
TORSDOF 3
