REMARK  2 active torsions:
REMARK  status: ('A' for Active; 'I' for Inactive)
REMARK    1  A    between atoms: C5_5  and  C8_8 
REMARK    2  A    between atoms: C9_9  and  C10_10 
ROOT
HETATM    1  C1  UNL     1     -32.247   6.784   1.982  1.00 20.00     0.009 A 
HETATM    2  C2  UNL     1     -34.528   6.185   1.454  1.00 20.00     0.009 A 
HETATM    3  C3  UNL     1     -32.313   7.838   1.071  1.00 20.00     0.024 A 
HETATM    4  C4  UNL     1     -34.593   7.239   0.543  1.00 20.00     0.024 A 
HETATM    5  C5  UNL     1     -33.355   5.957   2.174  1.00 20.00    -0.053 A 
HETATM    6  C6  UNL     1     -33.486   8.066   0.352  1.00 20.00     0.034 A 
HETATM    7 CL11 UNL     1     -33.567   9.366  -0.773  1.00 20.00    -0.084 Cl
ENDROOT
BRANCH   5   8
HETATM    8  C8  UNL     1     -33.284   4.831   3.147  1.00 20.00     0.024 A 
HETATM    9  C7  UNL     1     -34.544   4.395   3.854  1.00 20.00     0.016 A 
HETATM   10  C9  UNL     1     -33.455   5.071   4.631  1.00 20.00     0.008 A 
BRANCH  10  11
HETATM   11  C10 UNL     1     -33.681   6.427   5.209  1.00 20.00     0.119 C 
HETATM   12 CL12 UNL     1     -34.618   6.335   6.726  1.00 20.00    -0.130 Cl
ENDBRANCH  10  11
ENDBRANCH   5   8
TORSDOF 2
