REMARK  1 active torsions:
REMARK  status: ('A' for Active; 'I' for Inactive)
REMARK    1  A    between atoms: C5_5  and  C10_10 
ROOT
HETATM    1  C1  UNL     1     -33.287   7.249   5.384  1.00 20.00     0.036 C 
HETATM    2  C2  UNL     1     -32.450   6.219   3.139  1.00 20.00     0.016 A 
HETATM    3  C3  UNL     1     -34.986   6.450   3.716  1.00 20.00     0.047 C 
HETATM    4  C4  UNL     1     -33.751   6.133   6.307  1.00 20.00     0.169 C 
HETATM    5  C5  UNL     1     -32.805   7.657   2.880  1.00 20.00     0.009 A 
HETATM    6  C6  UNL     1     -33.552   6.872   3.947  1.00 20.00    -0.031 A 
HETATM    7  C7  UNL     1     -35.442   5.398   4.750  1.00 20.00     0.054 C 
HETATM    8  C8  UNL     1     -36.973   5.283   4.702  1.00 20.00     0.045 C 
HETATM    9  C9  UNL     1     -34.848   4.011   4.467  1.00 20.00     0.045 C 
HETATM   10  O11 UNL     1     -35.128   5.830   6.085  1.00 20.00    -0.381 OA
ENDROOT
BRANCH   5  11
HETATM   11  C10 UNL     1     -33.429   8.054   1.587  1.00 20.00     0.120 C 
HETATM   12 CL12 UNL     1     -32.202   8.215   0.299  1.00 20.00    -0.130 Cl
ENDBRANCH   5  11
TORSDOF 1
