REMARK  1 active torsions:
REMARK  status: ('A' for Active; 'I' for Inactive)
REMARK    1  A    between atoms: C7_7  and  C11_11 
ROOT
HETATM    1  C1  UNL     1     -34.763   4.174   3.971  1.00 20.00     0.005 C 
HETATM    2  C2  UNL     1     -33.815   4.673   2.878  1.00 20.00     0.010 C 
HETATM    3  C3  UNL     1     -34.345   6.903   3.997  1.00 20.00     0.014 C 
HETATM    4  C4  UNL     1     -32.007   6.550   2.922  1.00 20.00     0.016 A 
HETATM    5  C5  UNL     1     -34.328   4.700   5.342  1.00 20.00    -0.015 C 
HETATM    6  C6  UNL     1     -34.388   6.249   5.393  1.00 20.00    -0.014 C 
HETATM    7  C7  UNL     1     -32.935   6.832   1.778  1.00 20.00     0.009 A 
HETATM    8  C8  UNL     1     -33.465   6.143   3.030  1.00 20.00    -0.035 A 
HETATM    9  C9  UNL     1     -35.180   4.079   6.451  1.00 20.00     0.010 C 
HETATM   10  C10 UNL     1     -33.276   6.797   6.295  1.00 20.00     0.010 C 
ENDROOT
BRANCH   7  11
HETATM   11  C11 UNL     1     -33.285   8.235   1.419  1.00 20.00     0.120 C 
HETATM   12 CL12 UNL     1     -31.986   9.002   0.464  1.00 20.00    -0.130 Cl
ENDBRANCH   7  11
TORSDOF 1
