REMARK  2 active torsions:
REMARK  status: ('A' for Active; 'I' for Inactive)
REMARK    1  A    between atoms: C5_5  and  C6_6 
REMARK    2  A    between atoms: C7_7  and  C8_8 
ROOT
HETATM    1  C1  UNL     1     -33.314   4.805   3.168  1.00 20.00     0.033 C 
HETATM    2  C3  UNL     1     -34.395   3.997   3.855  1.00 20.00     0.168 C 
HETATM    3  C4  UNL     1     -34.070   5.963   5.062  1.00 20.00     0.172 C 
HETATM    4  C5  UNL     1     -33.643   6.209   3.625  1.00 20.00     0.016 C 
HETATM    5  O9  UNL     1     -34.702   4.674   5.083  1.00 20.00    -0.391 OA
ENDROOT
BRANCH   4   6
HETATM    6  C6  UNL     1     -32.497   7.193   3.487  1.00 20.00    -0.003 A 
HETATM    7  C2  UNL     1     -32.775   8.668   3.385  1.00 20.00     0.011 A 
HETATM    8  C7  UNL     1     -32.213   7.927   2.200  1.00 20.00     0.000 A 
BRANCH   8   9
HETATM    9  C8  UNL     1     -33.036   7.740   0.972  1.00 20.00     0.090 C 
HETATM   10 BR10 UNL     1     -33.052   9.375  -0.094  1.00 20.00    -0.096 Br
ENDBRANCH   8   9
ENDBRANCH   4   6
TORSDOF 2
