REMARK  2 active torsions:
REMARK  status: ('A' for Active; 'I' for Inactive)
REMARK    1  A    between atoms: C4_4  and  C6_6 
REMARK    2  A    between atoms: C5_5  and  C8_8 
ROOT
HETATM    1  C3  UNL     1     -32.751   5.565   2.498  1.00 20.00     0.016 A 
HETATM    2  C5  UNL     1     -33.261   6.761   1.746  1.00 20.00     0.009 A 
HETATM    3  C6  UNL     1     -33.069   6.842   3.259  1.00 20.00    -0.035 A 
HETATM    4  C7  UNL     1     -31.892   7.616   3.802  1.00 20.00     0.016 C 
ENDROOT
BRANCH   3   5
HETATM    5  C4  UNL     1     -34.308   6.913   4.166  1.00 20.00    -0.006 A 
HETATM    6  C1  UNL     1     -34.948   5.690   4.761  1.00 20.00     0.006 A 
HETATM    7  C2  UNL     1     -34.242   6.676   5.649  1.00 20.00     0.006 A 
ENDBRANCH   3   5
BRANCH   2   8
HETATM    8  C8  UNL     1     -32.381   7.476   0.778  1.00 20.00     0.120 C 
HETATM    9 CL9  UNL     1     -32.981   9.126   0.456  1.00 20.00    -0.130 Cl
ENDBRANCH   2   8
TORSDOF 2
