REMARK  1 active torsions:
REMARK  status: ('A' for Active; 'I' for Inactive)
REMARK    1  A    between atoms: C5_5  and  C10_10 
ROOT
HETATM    1  C1  UNL     1     -35.105   4.933   4.082  1.00 20.00     0.019 C 
HETATM    2  C2  UNL     1     -31.760   6.647   3.842  1.00 20.00     0.017 A 
HETATM    3  C3  UNL     1     -34.511   4.643   5.454  1.00 20.00     0.075 C 
HETATM    4  C4  UNL     1     -33.991   7.327   4.952  1.00 20.00     0.084 C 
HETATM    5  C5  UNL     1     -32.389   7.696   2.979  1.00 20.00     0.006 A 
HETATM    6  C6  UNL     1     -33.285   6.713   3.755  1.00 20.00    -0.020 A 
HETATM    7  C7  UNL     1     -34.098   5.570   3.066  1.00 20.00    -0.038 C 
HETATM    8  C8  UNL     1     -34.953   6.130   1.909  1.00 20.00     0.015 C 
HETATM    9  C9  UNL     1     -33.219   4.426   2.519  1.00 20.00     0.015 C 
HETATM   10  S11 UNL     1     -34.043   6.160   6.339  1.00 20.00    -0.168 SA
ENDROOT
BRANCH   5  11
HETATM   11  C10 UNL     1     -32.106   7.701   1.520  1.00 20.00     0.090 C 
HETATM   12 BR12 UNL     1     -33.088   9.138   0.634  1.00 20.00    -0.096 Br
ENDBRANCH   5  11
TORSDOF 1
