REMARK  2 active torsions:
REMARK  status: ('A' for Active; 'I' for Inactive)
REMARK    1  A    between atoms: C2_2  and  C6_6 
REMARK    2  A    between atoms: C7_7  and  C10_10 
ROOT
HETATM    1  C1  UNL     1     -32.656   8.471   2.325  1.00 20.00     0.022 A 
HETATM    2  C2  UNL     1     -32.746   7.227   3.015  1.00 20.00    -0.040 A 
HETATM    3  C3  UNL     1     -32.756   8.314   0.961  1.00 20.00    -0.020 A 
HETATM    4  C4  UNL     1     -32.912   6.167   2.151  1.00 20.00    -0.014 A 
HETATM    5  C8  UNL     1     -32.709   9.352  -0.092  1.00 20.00     0.056 C 
HETATM    6  C9  UNL     1     -33.047   4.727   2.463  1.00 20.00     0.057 C 
HETATM    7  S11 UNL     1     -32.958   6.672   0.516  1.00 20.00    -0.100 SA
ENDROOT
BRANCH   2   8
HETATM    8  C6  UNL     1     -32.667   7.098   4.518  1.00 20.00     0.025 A 
HETATM    9  C5  UNL     1     -33.033   8.270   5.404  1.00 20.00     0.016 A 
HETATM   10  C7  UNL     1     -33.938   7.076   5.343  1.00 20.00     0.004 A 
BRANCH  10  11
HETATM   11  C10 UNL     1     -34.052   6.162   6.514  1.00 20.00     0.090 C 
HETATM   12 BR12 UNL     1     -34.802   4.444   5.968  1.00 20.00    -0.096 Br
ENDBRANCH  10  11
ENDBRANCH   2   8
TORSDOF 2
