REMARK  3 active torsions:
REMARK  status: ('A' for Active; 'I' for Inactive)
REMARK    1  A    between atoms: C4_4  and  C5_5 
REMARK    2  A    between atoms: C6_6  and  C7_7 
REMARK    3  A    between atoms: C7_7  and  O8_8 
ROOT
HETATM    1  C3  UNL     1     -32.576   7.479   4.257  1.00 20.00     0.012 A 
HETATM    2  C5  UNL     1     -32.910   6.636   3.055  1.00 20.00    -0.004 A 
HETATM    3  C6  UNL     1     -33.974   6.952   4.073  1.00 20.00     0.014 A 
ENDROOT
BRANCH   2   4
HETATM    4  C4  UNL     1     -32.940   7.201   1.643  1.00 20.00    -0.010 A 
HETATM    5  C1  UNL     1     -33.016   8.675   1.360  1.00 20.00     0.005 A 
HETATM    6  C2  UNL     1     -31.766   7.910   1.027  1.00 20.00     0.005 A 
ENDBRANCH   2   4
BRANCH   3   7
HETATM    7  C7  UNL     1     -34.497   5.883   4.970  1.00 20.00     0.169 C 
BRANCH   7   8
HETATM    8  O8  UNL     1     -35.614   5.237   4.358  1.00 20.00    -0.400 OA
HETATM    9  H20 UNL     1     -35.911   4.557   4.981  1.00 20.00     0.209 HD
ENDBRANCH   7   8
ENDBRANCH   3   7
TORSDOF 3
