REMARK  2 active torsions:
REMARK  status: ('A' for Active; 'I' for Inactive)
REMARK    1  A    between atoms: C4_4  and  C6_6 
REMARK    2  A    between atoms: C7_7  and  C8_8 
ROOT
HETATM    1  C1  UNL     1     -34.504   4.540   5.293  1.00 20.00     0.034 A 
HETATM    2  C2  UNL     1     -34.594   5.334   6.412  1.00 20.00     0.142 A 
HETATM    3  C3  UNL     1     -33.947   6.641   4.793  1.00 20.00     0.148 A 
HETATM    4  C4  UNL     1     -34.083   5.389   4.241  1.00 20.00    -0.029 A 
HETATM    5  O9  UNL     1     -34.257   6.616   6.116  1.00 20.00    -0.334 OA
ENDROOT
BRANCH   4   6
HETATM    6  C6  UNL     1     -33.827   4.993   2.776  1.00 20.00     0.026 A 
HETATM    7  C5  UNL     1     -32.479   4.409   2.413  1.00 20.00     0.016 A 
HETATM    8  C7  UNL     1     -32.847   5.779   1.926  1.00 20.00     0.005 A 
BRANCH   8   9
HETATM    9  C8  UNL     1     -32.120   6.975   2.439  1.00 20.00     0.090 C 
HETATM   10 BR10 UNL     1     -33.154   8.596   2.106  1.00 20.00    -0.096 Br
ENDBRANCH   8   9
ENDBRANCH   4   6
TORSDOF 2
