REMARK  1 active torsions:
REMARK  status: ('A' for Active; 'I' for Inactive)
REMARK    1  A    between atoms: C4_4  and  C8_8 
ROOT
HETATM    1  C1  UNL     1     -33.435   6.439   3.115  1.00 20.00     0.136 C 
HETATM    2  C2  UNL     1     -32.882   7.036   4.422  1.00 20.00     0.084 C 
HETATM    3  C3  UNL     1     -34.203   6.590   5.108  1.00 20.00     0.004 C 
HETATM    4  C4  UNL     1     -34.554   5.661   3.878  1.00 20.00     0.020 C 
HETATM    5  C5  UNL     1     -34.052   5.971   6.487  1.00 20.00     0.011 C 
HETATM    6  C6  UNL     1     -34.253   4.170   4.006  1.00 20.00     0.024 C 
HETATM    7  O9  UNL     1     -33.113   6.534   1.950  1.00 20.00    -0.297 OA
ENDROOT
BRANCH   4   8
HETATM    8  C8  UNL     1     -35.957   5.903   3.325  1.00 20.00     0.013 C 
HETATM    9  C7  UNL     1     -36.990   5.139   4.086  1.00 20.00     0.006 C 
ENDBRANCH   4   8
TORSDOF 1
