REMARK  1 active torsions:
REMARK  status: ('A' for Active; 'I' for Inactive)
REMARK    1  A    between atoms: C5_5  and  C10_10 
ROOT
HETATM    1  C1  UNL     1     -32.507   6.993   3.533  1.00 20.00     0.036 C 
HETATM    2  C2  UNL     1     -32.817   4.837   2.102  1.00 20.00     0.016 A 
HETATM    3  C3  UNL     1     -33.789   7.152   1.377  1.00 20.00     0.047 C 
HETATM    4  C4  UNL     1     -31.447   7.881   2.896  1.00 20.00     0.169 C 
HETATM    5  C5  UNL     1     -34.116   5.041   2.832  1.00 20.00     0.009 A 
HETATM    6  C6  UNL     1     -33.258   6.240   2.462  1.00 20.00    -0.031 A 
HETATM    7  C7  UNL     1     -32.694   8.096   0.841  1.00 20.00     0.054 C 
HETATM    8  C8  UNL     1     -31.689   7.369  -0.064  1.00 20.00     0.045 C 
HETATM    9  C9  UNL     1     -33.356   9.214   0.022  1.00 20.00     0.045 C 
HETATM   10  O11 UNL     1     -32.025   8.758   1.929  1.00 20.00    -0.381 OA
ENDROOT
BRANCH   5  11
HETATM   11  C10 UNL     1     -34.271   4.562   4.235  1.00 20.00     0.120 C 
HETATM   12 CL12 UNL     1     -35.612   5.402   5.061  1.00 20.00    -0.130 Cl
ENDBRANCH   5  11
TORSDOF 1
