REMARK  0 active torsions:
REMARK  status: ('A' for Active; 'I' for Inactive)
ROOT
HETATM    1  C1  UNL     1     -32.179   7.414   1.438  1.00 20.00     0.006 C 
HETATM    2  C2  UNL     1     -32.072   7.108   2.941  1.00 20.00     0.038 C 
HETATM    3  C3  UNL     1     -33.708   7.392   1.593  1.00 20.00     0.038 C 
HETATM    4  C4  UNL     1     -34.288   4.796   5.083  1.00 20.00     0.042 C 
HETATM    5  C5  UNL     1     -33.660   5.032   2.654  1.00 20.00     0.053 C 
HETATM    6  C6  UNL     1     -34.145   6.306   5.231  1.00 20.00     0.170 C 
HETATM    7  C7  UNL     1     -33.388   4.290   3.960  1.00 20.00     0.062 C 
HETATM    8  C8  UNL     1     -33.525   6.542   2.886  1.00 20.00     0.062 C 
HETATM    9  O9  UNL     1     -34.390   6.945   3.978  1.00 20.00    -0.380 OA
HETATM   10 BR10 UNL     1     -33.690   2.379   3.696  1.00 20.00    -0.091 Br
ENDROOT
TORSDOF 0
