REMARK  1 active torsions:
REMARK  status: ('A' for Active; 'I' for Inactive)
REMARK    1  A    between atoms: C3_3  and  O10_10 
ROOT
HETATM    1  C1  UNL     1     -32.662   6.831   2.136  1.00 20.00     0.143 C 
HETATM    2  C2  UNL     1     -32.519   5.330   2.439  1.00 20.00     0.082 C 
HETATM    3  C3  UNL     1     -33.183   5.605   3.824  1.00 20.00     0.146 C 
HETATM    4  C4  UNL     1     -33.461   7.102   3.440  1.00 20.00     0.040 C 
HETATM    5  C5  UNL     1     -33.239   4.411   1.469  1.00 20.00     0.020 C 
HETATM    6  C6  UNL     1     -34.920   7.470   3.180  1.00 20.00     0.026 C 
HETATM    7  C7  UNL     1     -32.787   8.107   4.371  1.00 20.00     0.026 C 
HETATM    8  O9  UNL     1     -32.297   7.533   1.216  1.00 20.00    -0.297 OA
ENDROOT
BRANCH   3   9
HETATM    9  O10 UNL     1     -34.333   4.799   4.151  1.00 20.00    -0.389 OA
HETATM   10  C8  UNL     1     -34.563   4.798   5.546  1.00 20.00     0.202 C 
ENDBRANCH   3   9
TORSDOF 1
