REMARK  0 active torsions:
REMARK  status: ('A' for Active; 'I' for Inactive)
ROOT
HETATM    1  C1  UNL     1     -32.549   7.912   1.888  1.00 20.00     0.068 C 
HETATM    2  C2  UNL     1     -32.792   4.672   2.433  1.00 20.00     0.010 A 
HETATM    3  C3  UNL     1     -33.619   3.639   2.880  1.00 20.00     0.019 A 
HETATM    4  C4  UNL     1     -34.272   4.944   4.828  1.00 20.00     0.026 A 
HETATM    5  C5  UNL     1     -32.711   5.828   3.194  1.00 20.00    -0.034 A 
HETATM    6  C6  UNL     1     -33.440   5.958   4.384  1.00 20.00    -0.049 A 
HETATM    7  C7  UNL     1     -34.355   3.775   4.068  1.00 20.00     0.011 A 
HETATM    8  C8  UNL     1     -33.217   7.300   5.004  1.00 20.00     0.041 C 
HETATM    9  C9  UNL     1     -31.925   7.745   4.296  1.00 20.00     0.028 C 
HETATM   10  C10 UNL     1     -31.914   7.068   2.908  1.00 20.00     0.126 C 
HETATM   11  N11 UNL     1     -33.051   8.578   1.082  1.00 20.00    -0.197 NA
HETATM   12 BR12 UNL     1     -35.475   2.362   4.641  1.00 20.00    -0.051 Br
ENDROOT
TORSDOF 0
