REMARK  0 active torsions:
REMARK  status: ('A' for Active; 'I' for Inactive)
ROOT
HETATM    1  C1  UNL     1     -33.172   6.671   5.778  1.00 20.00     0.007 C 
HETATM    2  C2  UNL     1     -32.697   7.242   4.433  1.00 20.00     0.027 C 
HETATM    3  C3  UNL     1     -34.452   4.872   4.606  1.00 20.00     0.027 C 
HETATM    4  C4  UNL     1     -35.071   7.181   4.428  1.00 20.00     0.032 C 
HETATM    5  C5  UNL     1     -34.585   6.153   5.454  1.00 20.00    -0.011 C 
HETATM    6  C6  UNL     1     -34.041   5.418   3.226  1.00 20.00     0.106 C 
HETATM    7  C7  UNL     1     -33.881   6.931   3.496  1.00 20.00     0.054 C 
HETATM    8 CL8  UNL     1     -32.594   4.625   2.578  1.00 20.00    -0.123 Cl
HETATM    9 CL9  UNL     1     -33.885   7.912   2.039  1.00 20.00    -0.118 Cl
ENDROOT
TORSDOF 0
