REMARK  1 active torsions:
REMARK  status: ('A' for Active; 'I' for Inactive)
REMARK    1  A    between atoms: C1_1  and  C5_5 
ROOT
HETATM    1  C1  UNL     1     -33.044   7.214   2.398  1.00 20.00    -0.089 C 
HETATM    2  C2  UNL     1     -32.915   8.035   1.533  1.00 20.00    -0.023 C 
HETATM    3 BR6  UNL     1     -32.710   9.336   0.162  1.00 20.00     0.010 Br
ENDROOT
BRANCH   1   4
HETATM    4  C5  UNL     1     -33.198   6.234   3.432  1.00 20.00     0.066 A 
HETATM    5  C3  UNL     1     -34.047   5.021   3.161  1.00 20.00     0.018 A 
HETATM    6  C4  UNL     1     -34.540   6.084   4.097  1.00 20.00     0.018 A 
ENDBRANCH   1   4
TORSDOF 1
