REMARK  1 active torsions:
REMARK  status: ('A' for Active; 'I' for Inactive)
REMARK       I    between atoms: C1_1  and  N5_5 
REMARK    1  A    between atoms: C4_4  and  N5_5 
ROOT
HETATM    1  C1  UNL     1     -33.480   6.286   3.466  1.00 20.00     0.314 C 
HETATM    2  N5  UNL     1     -33.897   6.867   4.662  1.00 20.00    -0.343 N 
HETATM    3  O6  UNL     1     -33.681   5.105   3.189  1.00 20.00    -0.254 OA
HETATM    4 CL7  UNL     1     -32.652   7.418   2.428  1.00 20.00    -0.020 Cl
HETATM    5  H13 UNL     1     -33.690   7.858   4.816  1.00 20.00     0.164 HD
ENDROOT
BRANCH   2   6
HETATM    6  C4  UNL     1     -34.592   6.161   5.677  1.00 20.00     0.085 A 
HETATM    7  C2  UNL     1     -35.594   5.093   5.337  1.00 20.00     0.027 A 
HETATM    8  C3  UNL     1     -34.287   4.719   5.973  1.00 20.00     0.027 A 
ENDBRANCH   2   6
TORSDOF 1
