REMARK  1 active torsions:
REMARK  status: ('A' for Active; 'I' for Inactive)
REMARK    1  A    between atoms: C2_2  and  C3_3 
ROOT
HETATM    1  C1  UNL     1     -35.463   5.066   4.173  1.00 20.00     0.060 C 
HETATM    2  C2  UNL     1     -34.051   5.629   4.311  1.00 20.00     0.206 C 
HETATM    3 CL7  UNL     1     -34.012   6.776   5.687  1.00 20.00    -0.092 Cl
HETATM    4 CL8  UNL     1     -32.918   4.285   4.662  1.00 20.00    -0.092 Cl
ENDROOT
BRANCH   2   5
HETATM    5  C3  UNL     1     -33.611   6.345   3.043  1.00 20.00     0.422 C 
HETATM    6  F4  UNL     1     -34.433   7.378   2.749  1.00 20.00    -0.168 F 
HETATM    7  F5  UNL     1     -32.363   6.851   3.171  1.00 20.00    -0.168 F 
HETATM    8  F6  UNL     1     -33.604   5.516   1.975  1.00 20.00    -0.168 F 
ENDBRANCH   2   5
TORSDOF 1
