REMARK  2 active torsions:
REMARK  status: ('A' for Active; 'I' for Inactive)
REMARK    1  A    between atoms: C1_1  and  C3_3 
REMARK    2  A    between atoms: C2_2  and  C5_5 
ROOT
HETATM    1  C1  UNL     1     -33.592   6.013   3.542  1.00 20.00     0.005 C 
HETATM    2  C2  UNL     1     -32.965   6.271   2.386  1.00 20.00     0.068 C 
ENDROOT
BRANCH   1   3
HETATM    3  C3  UNL     1     -33.710   6.991   4.601  1.00 20.00    -0.004 C 
HETATM    4  C4  UNL     1     -34.335   6.745   5.762  1.00 20.00    -0.031 C 
HETATM    5  C6  UNL     1     -34.978   5.439   6.095  1.00 20.00     0.036 C 
ENDBRANCH   1   3
BRANCH   2   6
HETATM    6  C5  UNL     1     -32.347   7.607   2.131  1.00 20.00     0.241 C 
HETATM    7  O7  UNL     1     -31.457   8.034   2.862  1.00 20.00    -0.275 OA
HETATM    8 CL8  UNL     1     -32.977   8.479   0.748  1.00 20.00    -0.039 Cl
ENDBRANCH   2   6
TORSDOF 2
