REMARK  0 active torsions:
REMARK  status: ('A' for Active; 'I' for Inactive)
ROOT
HETATM    1  C1  UNL     1     -32.858   4.348   3.811  1.00 20.00     0.005 C 
HETATM    2  C2  UNL     1     -34.649   5.596   2.497  1.00 20.00     0.005 C 
HETATM    3  C3  UNL     1     -32.959   6.892   3.895  1.00 20.00     0.005 C 
HETATM    4  C4  UNL     1     -33.977   3.727   4.637  1.00 20.00     0.006 C 
HETATM    5  C5  UNL     1     -35.737   6.126   3.422  1.00 20.00     0.006 C 
HETATM    6  C6  UNL     1     -33.272   6.774   5.381  1.00 20.00     0.006 C 
HETATM    7  C7  UNL     1     -33.222   5.634   3.059  1.00 20.00    -0.014 C 
HETATM    8  C8  UNL     1     -34.820   4.639   5.464  1.00 20.00    -0.006 A 
HETATM    9  C9  UNL     1     -35.689   5.722   4.857  1.00 20.00    -0.006 A 
HETATM   10  C10 UNL     1     -34.541   6.096   5.774  1.00 20.00    -0.006 A 
ENDROOT
TORSDOF 0
