REMARK  3 active torsions:
REMARK  status: ('A' for Active; 'I' for Inactive)
REMARK    1  A    between atoms: C3_3  and  C5_5 
REMARK    2  A    between atoms: C4_4  and  C5_5 
REMARK    3  A    between atoms: C5_5  and  O6_6 
ROOT
HETATM    1  C5  UNL     1     -33.889   6.483   3.958  1.00 20.00     0.132 C 
ENDROOT
BRANCH   1   2
HETATM    2  C3  UNL     1     -32.680   7.006   3.264  1.00 20.00     0.015 A 
HETATM    3  C1  UNL     1     -32.326   6.517   1.887  1.00 20.00     0.007 A 
HETATM    4  C2  UNL     1     -32.823   7.922   2.081  1.00 20.00     0.007 A 
ENDBRANCH   1   2
BRANCH   1   5
HETATM    5  C4  UNL     1     -33.778   6.647   5.472  1.00 20.00     0.117 C 
HETATM    6 BR7  UNL     1     -34.964   5.396   6.388  1.00 20.00    -0.094 Br
ENDBRANCH   1   5
BRANCH   1   7
HETATM    7  O6  UNL     1     -34.037   5.090   3.668  1.00 20.00    -0.394 OA
HETATM    8  H16 UNL     1     -33.234   4.659   3.994  1.00 20.00     0.210 HD
ENDBRANCH   1   7
TORSDOF 3
