REMARK  0 active torsions:
REMARK  status: ('A' for Active; 'I' for Inactive)
ROOT
HETATM    1  C1  UNL     1     -33.042   6.773   3.173  1.00 20.00     0.198 C 
HETATM    2  C2  UNL     1     -33.278   7.749   4.305  1.00 20.00     0.085 C 
HETATM    3  C3  UNL     1     -32.812   7.185   5.641  1.00 20.00     0.008 C 
HETATM    4  C4  UNL     1     -33.933   6.689   6.555  1.00 20.00     0.000 C 
HETATM    5  C5  UNL     1     -35.066   5.894   5.912  1.00 20.00     0.000 C 
HETATM    6  C6  UNL     1     -34.692   4.548   5.301  1.00 20.00     0.006 C 
HETATM    7  C7  UNL     1     -33.742   4.518   4.102  1.00 20.00     0.087 C 
HETATM    8  C8  UNL     1     -33.956   5.574   3.022  1.00 20.00     0.302 C 
HETATM    9  O9  UNL     1     -32.102   6.943   2.392  1.00 20.00    -0.291 OA
HETATM   10  F10 UNL     1     -33.690   4.973   1.821  1.00 20.00    -0.198 F 
HETATM   11  F11 UNL     1     -35.263   5.935   2.953  1.00 20.00    -0.198 F 
ENDROOT
TORSDOF 0
