REMARK  0 active torsions:
REMARK  status: ('A' for Active; 'I' for Inactive)
ROOT
HETATM    1  C1  UNL     1     -33.060   7.337   4.857  1.00 20.00     0.008 C 
HETATM    2  C2  UNL     1     -34.098   7.332   5.980  1.00 20.00     0.030 C 
HETATM    3  C3  UNL     1     -33.690   7.105   3.487  1.00 20.00     0.081 C 
HETATM    4  C4  UNL     1     -34.715   5.969   6.293  1.00 20.00     0.270 C 
HETATM    5  C5  UNL     1     -34.410   4.713   4.242  1.00 20.00     0.348 C 
HETATM    6  C6  UNL     1     -33.924   5.643   3.138  1.00 20.00     0.269 C 
HETATM    7  N7  UNL     1     -35.368   5.311   5.164  1.00 20.00     0.089 N 
HETATM    8  F8  UNL     1     -32.754   5.129   2.658  1.00 20.00    -0.204 F 
HETATM    9  F9  UNL     1     -34.801   5.591   2.097  1.00 20.00    -0.204 F 
HETATM   10  H20 UNL     1     -36.037   4.610   5.494  1.00 20.00     0.316 HD
ENDROOT
TORSDOF 0
