REMARK  0 active torsions:
REMARK  status: ('A' for Active; 'I' for Inactive)
ROOT
HETATM    1  C1  UNL     1     -34.565   4.754   3.588  1.00 20.00     0.047 C 
HETATM    2  C2  UNL     1     -33.887   5.326   2.585  1.00 20.00    -0.014 C 
HETATM    3  C3  UNL     1     -34.618   5.442   4.905  1.00 20.00     0.149 C 
HETATM    4  C4  UNL     1     -33.968   6.809   5.044  1.00 20.00     0.084 C 
HETATM    5  C5  UNL     1     -32.773   6.976   4.108  1.00 20.00     0.021 C 
HETATM    6  C6  UNL     1     -32.241   7.014   1.571  1.00 20.00     0.014 A 
HETATM    7  C7  UNL     1     -33.558   7.713   1.741  1.00 20.00     0.014 A 
HETATM    8  C8  UNL     1     -33.164   6.608   2.697  1.00 20.00    -0.022 A 
HETATM    9  O9  UNL     1     -35.232   4.924   5.837  1.00 20.00    -0.293 OA
ENDROOT
TORSDOF 0
