REMARK  3 active torsions:
REMARK  status: ('A' for Active; 'I' for Inactive)
REMARK    1  A    between atoms: C3_3  and  C8_8 
REMARK    2  A    between atoms: C6_6  and  C7_7 
REMARK    3  A    between atoms: C7_7  and  C8_8 
ROOT
HETATM    1  C5  UNL     1     -33.028   6.967   4.991  1.00 20.00     0.010 C 
HETATM    2  C8  UNL     1     -34.103   6.687   3.940  1.00 20.00    -0.014 C 
ENDROOT
BRANCH   2   3
HETATM    3  C3  UNL     1     -35.195   5.799   4.543  1.00 20.00    -0.011 A 
HETATM    4  C1  UNL     1     -34.864   4.414   5.027  1.00 20.00     0.005 A 
HETATM    5  C2  UNL     1     -35.197   5.497   6.016  1.00 20.00     0.005 A 
ENDBRANCH   2   3
BRANCH   2   6
HETATM    6  C7  UNL     1     -33.530   6.023   2.675  1.00 20.00     0.004 C 
BRANCH   6   7
HETATM    7  C6  UNL     1     -32.382   6.811   2.039  1.00 20.00    -0.004 C 
HETATM    8  C4  UNL     1     -32.848   8.179   1.561  1.00 20.00     0.005 C 
ENDBRANCH   6   7
ENDBRANCH   2   6
TORSDOF 3
