REMARK  1 active torsions:
REMARK  status: ('A' for Active; 'I' for Inactive)
REMARK    1  A    between atoms: C6_6  and  C11_11 
ROOT
HETATM    1  C1  UNL     1     -34.900   6.177   5.955  1.00 20.00    -0.004 C 
HETATM    2  C2  UNL     1     -33.649   6.890   5.923  1.00 20.00    -0.003 C 
HETATM    3  C3  UNL     1     -35.481   5.751   4.826  1.00 20.00    -0.025 C 
HETATM    4  C4  UNL     1     -32.910   6.954   4.806  1.00 20.00    -0.013 C 
HETATM    5  C7  UNL     1     -34.863   5.985   3.474  1.00 20.00     0.044 C 
HETATM    6  C11 UNL     1     -33.333   6.299   3.500  1.00 20.00    -0.000 C 
HETATM    7  C12 UNL     1     -32.529   4.994   3.348  1.00 20.00     0.025 C 
ENDROOT
BRANCH   6   8
HETATM    8  C6  UNL     1     -33.002   7.194   2.332  1.00 20.00    -0.071 C 
HETATM    9  C5  UNL     1     -33.656   7.274   1.167  1.00 20.00    -0.023 C 
HETATM   10  C8  UNL     1     -33.061   8.302   0.265  1.00 20.00     0.027 C 
HETATM   11  C10 UNL     1     -31.724   8.612   0.937  1.00 20.00     0.008 C 
HETATM   12  C9  UNL     1     -31.860   8.158   2.391  1.00 20.00     0.035 C 
ENDBRANCH   6   8
TORSDOF 1
