REMARK  3 active torsions:
REMARK  status: ('A' for Active; 'I' for Inactive)
REMARK    1  A    between atoms: C5_5  and  C8_8 
REMARK    2  A    between atoms: C6_6  and  C7_7 
REMARK    3  A    between atoms: C6_6  and  C8_8 
ROOT
HETATM    1  C4  UNL     1     -31.762   6.040   2.439  1.00 20.00     0.032 C 
HETATM    2  C8  UNL     1     -32.579   7.345   2.454  1.00 20.00     0.033 C 
HETATM    3 CL9  UNL     1     -31.731   8.440   3.621  1.00 20.00    -0.120 Cl
ENDROOT
BRANCH   2   4
HETATM    4  C5  UNL     1     -32.546   8.027   1.068  1.00 20.00     0.021 C 
HETATM    5  C1  UNL     1     -33.326   9.333   0.969  1.00 20.00     0.007 C 
ENDBRANCH   2   4
BRANCH   2   6
HETATM    6  C6  UNL     1     -34.008   7.030   2.974  1.00 20.00     0.029 C 
BRANCH   6   7
HETATM    7  C7  UNL     1     -34.178   6.136   4.226  1.00 20.00    -0.021 C 
HETATM    8  C2  UNL     1     -33.470   6.802   5.415  1.00 20.00     0.009 C 
HETATM    9  C3  UNL     1     -35.629   5.852   4.608  1.00 20.00     0.009 C 
ENDBRANCH   6   7
ENDBRANCH   2   6
TORSDOF 3
