REMARK  1 active torsions:
REMARK  status: ('A' for Active; 'I' for Inactive)
REMARK    1  A    between atoms: C5_5  and  C7_7 
ROOT
HETATM    1  C1  UNL     1     -32.402   7.028   3.413  1.00 20.00     0.019 C 
HETATM    2  C2  UNL     1     -34.508   4.672   4.703  1.00 20.00     0.292 C 
HETATM    3  C3  UNL     1     -36.043   5.769   3.809  1.00 20.00     0.292 C 
HETATM    4  C4  UNL     1     -32.570   6.533   1.986  1.00 20.00     0.075 C 
HETATM    5  C5  UNL     1     -33.811   7.192   3.986  1.00 20.00     0.037 C 
HETATM    6  C6  UNL     1     -34.502   5.860   3.700  1.00 20.00     0.066 C 
HETATM    7  N8  UNL     1     -35.866   5.091   5.112  1.00 20.00     0.086 N 
HETATM    8  S10 UNL     1     -33.889   5.282   2.040  1.00 20.00    -0.155 SA
HETATM    9  H22 UNL     1     -36.516   4.327   5.290  1.00 20.00     0.316 HD
ENDROOT
BRANCH   5  10
HETATM   10  C7  UNL     1     -33.783   7.587   5.455  1.00 20.00     0.228 C 
HETATM   11  F9  UNL     1     -33.160   6.603   6.149  1.00 20.00    -0.255 F 
ENDBRANCH   5  10
TORSDOF 1
