REMARK  0 active torsions:
REMARK  status: ('A' for Active; 'I' for Inactive)
ROOT
HETATM    1  C1  UNL     1     -33.851   6.510   4.499  1.00 20.00     0.078 C 
HETATM    2  C2  UNL     1     -32.906   5.584   2.496  1.00 20.00     0.152 C 
HETATM    3  C3  UNL     1     -32.901   6.585   3.569  1.00 20.00     0.134 C 
HETATM    4  C4  UNL     1     -34.278   4.154   3.746  1.00 20.00     0.213 C 
HETATM    5  C5  UNL     1     -34.833   5.380   4.480  1.00 20.00     0.217 C 
HETATM    6  N6  UNL     1     -33.555   4.471   2.503  1.00 20.00    -0.294 NA
HETATM    7  F7  UNL     1     -32.010   7.585   3.484  1.00 20.00    -0.205 F 
HETATM    8  F8  UNL     1     -35.129   4.999   5.755  1.00 20.00    -0.219 F 
HETATM    9 CL9  UNL     1     -36.343   5.944   3.707  1.00 20.00    -0.076 Cl
ENDROOT
TORSDOF 0
