REMARK  0 active torsions:
REMARK  status: ('A' for Active; 'I' for Inactive)
ROOT
HETATM    1  C1  UNL     1     -33.738   6.618   3.845  1.00 20.00     0.078 C 
HETATM    2  C2  UNL     1     -33.756   4.974   2.096  1.00 20.00     0.152 C 
HETATM    3  C3  UNL     1     -33.297   6.256   2.642  1.00 20.00     0.134 C 
HETATM    4  C4  UNL     1     -34.399   4.222   4.224  1.00 20.00     0.213 C 
HETATM    5  C5  UNL     1     -34.613   5.687   4.624  1.00 20.00     0.217 C 
HETATM    6  N6  UNL     1     -34.310   4.023   2.764  1.00 20.00    -0.294 NA
HETATM    7  F7  UNL     1     -32.561   7.046   1.844  1.00 20.00    -0.205 F 
HETATM    8  F8  UNL     1     -35.923   6.000   4.404  1.00 20.00    -0.219 F 
HETATM    9 CL9  UNL     1     -34.295   5.873   6.372  1.00 20.00    -0.076 Cl
ENDROOT
TORSDOF 0
