REMARK  3 active torsions:
REMARK  status: ('A' for Active; 'I' for Inactive)
REMARK    1  A    between atoms: C1_1  and  C3_3 
REMARK    2  A    between atoms: C2_2  and  C9_9 
REMARK    3  A    between atoms: C3_3  and  O11_11 
ROOT
HETATM    1  C1  UNL     1     -33.264   5.590   2.433  1.00 20.00     0.085 C 
HETATM    2  C2  UNL     1     -33.910   5.268   3.573  1.00 20.00    -0.070 C 
HETATM    3  C4  UNL     1     -34.305   3.841   3.891  1.00 20.00     0.044 C 
ENDROOT
BRANCH   2   4
HETATM    4  C9  UNL     1     -34.281   6.327   4.647  1.00 20.00    -0.028 C 
HETATM    5  C5  UNL     1     -34.996   5.650   5.837  1.00 20.00     0.019 C 
HETATM    6  C6  UNL     1     -35.233   7.436   4.134  1.00 20.00     0.019 C 
HETATM    7  C7  UNL     1     -33.003   7.027   5.153  1.00 20.00     0.019 C 
ENDBRANCH   2   4
BRANCH   1   8
HETATM    8  C3  UNL     1     -32.843   6.961   2.047  1.00 20.00     0.282 C 
HETATM    9  O10 UNL     1     -31.772   7.481   2.314  1.00 20.00    -0.260 OA
BRANCH   8  10
HETATM   10  O11 UNL     1     -33.859   7.509   1.327  1.00 20.00    -0.323 OA
HETATM   11  C8  UNL     1     -33.624   8.836   0.843  1.00 20.00     0.213 C 
ENDBRANCH   8  10
ENDBRANCH   1   8
TORSDOF 3
