REMARK  1 active torsions:
REMARK  status: ('A' for Active; 'I' for Inactive)
REMARK    1  A    between atoms: C5_5  and  C6_6 
ROOT
HETATM    1  C1  UNL     1     -34.462   6.430   5.192  1.00 20.00     0.011 C 
HETATM    2  C2  UNL     1     -34.405   4.982   4.693  1.00 20.00     0.011 C 
HETATM    3  C3  UNL     1     -33.091   7.084   5.357  1.00 20.00     0.075 C 
HETATM    4  C4  UNL     1     -34.213   4.786   3.193  1.00 20.00     0.075 C 
HETATM    5  C5  UNL     1     -33.092   7.218   2.511  1.00 20.00     0.122 C 
HETATM    6  S7  UNL     1     -32.502   8.122   3.977  1.00 20.00    -0.152 SA
HETATM    7  S8  UNL     1     -32.656   5.453   2.538  1.00 20.00    -0.152 SA
ENDROOT
BRANCH   5   8
HETATM    8  C6  UNL     1     -32.458   7.851   1.273  1.00 20.00     0.140 C 
HETATM    9 CL9  UNL     1     -32.933   9.554   1.149  1.00 20.00    -0.128 Cl
ENDBRANCH   5   8
TORSDOF 1
