REMARK  1 active torsions:
REMARK  status: ('A' for Active; 'I' for Inactive)
REMARK    1  A    between atoms: C1_1  and  C4_4 
ROOT
HETATM    1  C2  UNL     1     -33.861   6.847   5.899  1.00 20.00     0.173 C 
HETATM    2  C3  UNL     1     -35.070   4.965   5.249  1.00 20.00     0.173 C 
HETATM    3  C4  UNL     1     -33.330   5.883   3.529  1.00 20.00     0.060 A 
HETATM    4  C5  UNL     1     -33.986   6.911   4.417  1.00 20.00     0.027 A 
HETATM    5  C6  UNL     1     -34.752   5.718   4.005  1.00 20.00     0.027 A 
HETATM    6  O8  UNL     1     -34.240   5.513   6.291  1.00 20.00    -0.390 OA
ENDROOT
BRANCH   3   7
HETATM    7  C1  UNL     1     -33.084   6.211   2.120  1.00 20.00     0.236 C 
HETATM    8  O7  UNL     1     -32.439   7.188   1.756  1.00 20.00    -0.306 OA
ENDBRANCH   3   7
TORSDOF 1
