REMARK  1 active torsions:
REMARK  status: ('A' for Active; 'I' for Inactive)
REMARK    1  A    between atoms: C4_4  and  C10_10 
ROOT
HETATM    1  C1  UNL     1     -34.488   4.596   4.630  1.00 20.00     0.016 C 
HETATM    2  C2  UNL     1     -34.282   5.263   3.266  1.00 20.00     0.017 C 
HETATM    3  C3  UNL     1     -35.088   5.766   5.413  1.00 20.00     0.122 C 
HETATM    4  C4  UNL     1     -33.953   6.723   3.613  1.00 20.00     0.129 C 
HETATM    5  C5  UNL     1     -33.217   4.014   5.250  1.00 20.00     0.013 C 
HETATM    6  C6  UNL     1     -33.340   4.564   2.298  1.00 20.00     0.013 C 
HETATM    7  C7  UNL     1     -35.035   5.674   6.927  1.00 20.00     0.040 C 
HETATM    8  O11 UNL     1     -34.367   6.929   4.978  1.00 20.00    -0.380 OA
ENDROOT
BRANCH   4   9
HETATM    9  C10 UNL     1     -32.500   7.155   3.489  1.00 20.00     0.007 C 
HETATM   10  C8  UNL     1     -32.133   7.415   2.027  1.00 20.00     0.012 C 
HETATM   11  C9  UNL     1     -32.229   8.399   4.335  1.00 20.00     0.012 C 
ENDBRANCH   4   9
TORSDOF 1
