REMARK  0 active torsions:
REMARK  status: ('A' for Active; 'I' for Inactive)
ROOT
HETATM    1  C1  UNL     1     -33.000   6.363   4.186  1.00 20.00     0.016 C 
HETATM    2  C2  UNL     1     -34.137   7.007   4.971  1.00 20.00     0.016 C 
HETATM    3  C3  UNL     1     -33.782   5.430   3.264  1.00 20.00     0.122 C 
HETATM    4  C4  UNL     1     -35.094   5.826   5.169  1.00 20.00     0.122 C 
HETATM    5  C5  UNL     1     -32.116   7.350   3.439  1.00 20.00     0.013 C 
HETATM    6  C6  UNL     1     -33.702   7.732   6.235  1.00 20.00     0.013 C 
HETATM    7  C7  UNL     1     -32.981   4.234   2.779  1.00 20.00     0.040 C 
HETATM    8  C8  UNL     1     -34.863   4.983   6.417  1.00 20.00     0.040 C 
HETATM    9  O9  UNL     1     -34.910   4.965   4.026  1.00 20.00    -0.381 OA
ENDROOT
TORSDOF 0
