REMARK  0 active torsions:
REMARK  status: ('A' for Active; 'I' for Inactive)
ROOT
HETATM    1  C1  UNL     1     -33.437   6.879   3.516  1.00 20.00     0.017 C 
HETATM    2  C2  UNL     1     -33.660   6.574   4.994  1.00 20.00     0.027 C 
HETATM    3  C3  UNL     1     -33.643   5.506   2.873  1.00 20.00     0.123 C 
HETATM    4  C4  UNL     1     -34.788   5.554   4.914  1.00 20.00     0.197 C 
HETATM    5  C5  UNL     1     -32.116   7.565   3.206  1.00 20.00     0.013 C 
HETATM    6  C6  UNL     1     -34.013   7.796   5.832  1.00 20.00     0.014 C 
HETATM    7  C7  UNL     1     -32.419   4.600   2.825  1.00 20.00     0.040 C 
HETATM    8  O8  UNL     1     -34.646   4.850   3.673  1.00 20.00    -0.369 OA
HETATM    9 BR9  UNL     1     -34.710   4.297   6.393  1.00 20.00    -0.061 Br
ENDROOT
TORSDOF 0
