REMARK  2 active torsions:
REMARK  status: ('A' for Active; 'I' for Inactive)
REMARK    1  A    between atoms: C2_2  and  C9_9 
REMARK    2  A    between atoms: C3_3  and  C10_10 
ROOT
HETATM    1  C1  UNL     1     -34.247   4.714   3.370  1.00 20.00     0.079 A 
HETATM    2  C2  UNL     1     -34.003   5.762   4.232  1.00 20.00     0.046 A 
HETATM    3  C3  UNL     1     -33.097   6.607   2.422  1.00 20.00     0.079 A 
HETATM    4  N11 UNL     1     -33.343   6.848   3.691  1.00 20.00    -0.249 NA
HETATM    5  S12 UNL     1     -33.631   5.094   1.815  1.00 20.00    -0.084 SA
ENDROOT
BRANCH   3   6
HETATM    6  C10 UNL     1     -32.342   7.665   1.495  1.00 20.00     0.045 C 
HETATM    7  C7  UNL     1     -32.238   7.336  -0.022  1.00 20.00     0.011 C 
HETATM    8  C4  UNL     1     -33.405   8.310  -0.264  1.00 20.00     0.002 C 
HETATM    9  C8  UNL     1     -33.040   8.986   1.070  1.00 20.00     0.011 C 
ENDBRANCH   3   6
BRANCH   2  10
HETATM   10  C9  UNL     1     -34.432   5.731   5.703  1.00 20.00     0.038 A 
HETATM   11  C5  UNL     1     -34.214   6.964   6.552  1.00 20.00     0.011 A 
HETATM   12  C6  UNL     1     -33.364   5.753   6.775  1.00 20.00     0.011 A 
ENDBRANCH   2  10
TORSDOF 2
