REMARK  1 active torsions:
REMARK  status: ('A' for Active; 'I' for Inactive)
REMARK    1  A    between atoms: CA_4  and  C_5 
ROOT
HETATM    1  C1  UNK A   1     -32.820   6.596   2.084  1.00 20.00     0.013 A 
HETATM    2  C2  UNK A   1     -32.171   7.087   0.833  1.00 20.00     0.066 C 
ATOM      3  N   VAL A   1     -32.696   7.199   3.229  1.00 20.00    -0.255 NA
ATOM      4  CA  VAL A   1     -33.434   6.436   4.093  1.00 20.00     0.096 A 
ATOM      5  CB  VAL A   1     -34.018   5.372   3.529  1.00 20.00    -0.047 A 
ATOM      6  CG1 VAL A   1     -34.886   4.313   4.107  1.00 20.00     0.046 C 
ATOM      7  CG2 VAL A   1     -33.667   5.350   2.076  1.00 20.00     0.090 A 
ENDROOT
BRANCH   4   8
ATOM      8  C   VAL A   1     -33.533   6.809   5.499  1.00 20.00     0.290 C 
ATOM      9  O   VAL A   1     -34.182   6.161   6.316  1.00 20.00    -0.300 OA
ENDBRANCH   4   8
TORSDOF 1
