REMARK  2 active torsions:
REMARK  status: ('A' for Active; 'I' for Inactive)
REMARK    1  A    between atoms: C2_2  and  C9_9 
REMARK    2  A    between atoms: C3_3  and  C6_6 
ROOT
HETATM    1  C1  UNL     1     -33.644   4.670   3.019  1.00 20.00     0.079 A 
HETATM    2  C2  UNL     1     -33.973   5.687   3.890  1.00 20.00     0.045 A 
HETATM    3  C3  UNL     1     -32.902   6.873   2.387  1.00 20.00     0.079 A 
HETATM    4  N10 UNL     1     -33.548   6.951   3.529  1.00 20.00    -0.249 NA
HETATM    5  S11 UNL     1     -32.769   5.310   1.690  1.00 20.00    -0.084 SA
ENDROOT
BRANCH   2   6
HETATM    6  C9  UNL     1     -34.748   5.529   5.185  1.00 20.00     0.030 C 
HETATM    7  C7  UNL     1     -34.375   6.614   6.199  1.00 20.00     0.016 C 
HETATM    8  C8  UNL     1     -34.561   4.134   5.786  1.00 20.00     0.016 C 
ENDBRANCH   2   6
BRANCH   3   9
HETATM    9  C6  UNL     1     -32.299   8.115   1.711  1.00 20.00     0.045 A 
HETATM   10  C4  UNL     1     -33.182   8.952   0.815  1.00 20.00     0.012 A 
HETATM   11  C5  UNL     1     -32.108   8.102   0.212  1.00 20.00     0.012 A 
ENDBRANCH   3   9
TORSDOF 2
