REMARK  1 active torsions:
REMARK  status: ('A' for Active; 'I' for Inactive)
REMARK    1  A    between atoms: C4_4  and  C10_10 
ROOT
HETATM    1  C1  UNL     1     -33.710   5.148   3.793  1.00 20.00     0.016 C 
HETATM    2  C2  UNL     1     -33.756   5.218   2.271  1.00 20.00     0.017 C 
HETATM    3  C3  UNL     1     -34.658   6.287   4.160  1.00 20.00     0.122 C 
HETATM    4  C4  UNL     1     -33.793   6.730   2.025  1.00 20.00     0.129 C 
HETATM    5  C5  UNL     1     -34.127   3.804   4.371  1.00 20.00     0.013 C 
HETATM    6  C6  UNL     1     -32.644   4.455   1.569  1.00 20.00     0.013 C 
HETATM    7  C7  UNL     1     -34.401   6.880   5.534  1.00 20.00     0.040 C 
HETATM    8  O11 UNL     1     -34.468   7.306   3.162  1.00 20.00    -0.380 OA
ENDROOT
BRANCH   4   9
HETATM    9  C10 UNL     1     -32.439   7.419   1.901  1.00 20.00     0.007 C 
HETATM   10  C8  UNL     1     -32.575   8.747   1.156  1.00 20.00     0.012 C 
HETATM   11  C9  UNL     1     -31.818   7.640   3.279  1.00 20.00     0.012 C 
ENDBRANCH   4   9
TORSDOF 1
