REMARK  0 active torsions:
REMARK  status: ('A' for Active; 'I' for Inactive)
ROOT
HETATM    1  C1  UNL     1     -33.283   6.513   3.014  1.00 20.00     0.094 A 
HETATM    2  C2  UNL     1     -34.012   5.309   3.039  1.00 20.00     0.073 A 
HETATM    3  C3  UNL     1     -33.364   6.990   4.300  1.00 20.00     0.225 A 
HETATM    4  C4  UNL     1     -34.255   4.367   1.931  1.00 20.00     0.074 C 
HETATM    5  C5  UNL     1     -34.467   6.148   6.385  1.00 20.00     0.183 C 
HETATM    6  N6  UNL     1     -34.520   5.038   4.244  1.00 20.00    -0.174 NA
HETATM    7  N7  UNL     1     -34.108   6.078   4.989  1.00 20.00    -0.247 N 
HETATM    8  F8  UNL     1     -32.832   8.113   4.781  1.00 20.00    -0.183 F 
HETATM    9 BR9  UNL     1     -32.412   7.265   1.548  1.00 20.00    -0.044 Br
ENDROOT
TORSDOF 0
