REMARK  1 active torsions:
REMARK  status: ('A' for Active; 'I' for Inactive)
REMARK    1  A    between atoms: C7_7  and  N8_8 
ROOT
HETATM    1  C1  UNL     1     -34.436   6.903   6.223  1.00 20.00     0.065 C 
HETATM    2  C2  UNL     1     -33.289   7.175   5.245  1.00 20.00     0.275 C 
HETATM    3  C3  UNL     1     -33.831   5.338   3.755  1.00 20.00     0.306 C 
HETATM    4  C4  UNL     1     -35.033   5.544   6.056  1.00 20.00     0.154 A 
HETATM    5  C5  UNL     1     -34.761   4.784   4.791  1.00 20.00     0.179 A 
HETATM    6  N8  UNL     1     -33.681   6.798   3.878  1.00 20.00     0.090 N 
HETATM    7  O9  UNL     1     -34.108   4.456   6.034  1.00 20.00    -0.374 OA
ENDROOT
BRANCH   6   8
HETATM    8  C7  UNL     1     -32.699   7.286   2.909  1.00 20.00     0.268 C 
HETATM    9  C6  UNL     1     -33.084   6.910   1.518  1.00 20.00     0.037 C 
ENDBRANCH   6   8
TORSDOF 1
