REMARK  2 active torsions:
REMARK  status: ('A' for Active; 'I' for Inactive)
REMARK    1  A    between atoms: C1_1  and  C3_3 
REMARK    2  A    between atoms: C3_3  and  C4_4 
ROOT
HETATM    1  C3  UNL     1     -33.695   6.306   3.035  1.00 20.00     0.319 C 
HETATM    2  F7  UNL     1     -34.847   6.294   2.294  1.00 20.00    -0.209 F 
HETATM    3 CL12 UNL     1     -32.761   4.856   2.547  1.00 20.00    -0.067 Cl
ENDROOT
BRANCH   1   4
HETATM    4  C1  UNL     1     -34.021   6.239   4.510  1.00 20.00     0.143 C 
HETATM    5  C2  UNL     1     -34.672   5.227   5.099  1.00 20.00     0.289 C 
HETATM    6  F5  UNL     1     -34.921   5.249   6.425  1.00 20.00    -0.171 F 
HETATM    7  F6  UNL     1     -35.090   4.165   4.375  1.00 20.00    -0.171 F 
HETATM    8 CL11 UNL     1     -33.508   7.581   5.493  1.00 20.00    -0.078 Cl
ENDBRANCH   1   4
BRANCH   1   9
HETATM    9  C4  UNL     1     -32.948   7.566   2.625  1.00 20.00     0.443 C 
HETATM   10  F8  UNL     1     -31.769   7.660   3.284  1.00 20.00    -0.166 F 
HETATM   11  F9  UNL     1     -33.644   8.693   2.885  1.00 20.00    -0.166 F 
HETATM   12  F10 UNL     1     -32.666   7.552   1.303  1.00 20.00    -0.166 F 
ENDBRANCH   1   9
TORSDOF 2
