REMARK  0 active torsions:
REMARK  status: ('A' for Active; 'I' for Inactive)
ROOT
HETATM    1  C1  UNL     1     -34.923   5.271   5.339  1.00 20.00     0.184 A 
HETATM    2  C2  UNL     1     -34.196   6.473   5.257  1.00 20.00     0.175 A 
HETATM    3  C3  UNL     1     -33.579   6.419   4.031  1.00 20.00     0.162 A 
HETATM    4  C4  UNL     1     -33.579   4.704   2.184  1.00 20.00     0.181 C 
HETATM    5  N5  UNL     1     -34.782   4.508   4.251  1.00 20.00    -0.181 NA
HETATM    6  N6  UNL     1     -33.959   5.233   3.475  1.00 20.00    -0.260 N 
HETATM    7  F7  UNL     1     -34.123   7.442   6.163  1.00 20.00    -0.201 F 
HETATM    8 CL8  UNL     1     -32.543   7.490   3.226  1.00 20.00    -0.059 Cl
ENDROOT
TORSDOF 0
