REMARK  0 active torsions:
REMARK  status: ('A' for Active; 'I' for Inactive)
ROOT
HETATM    1  C1  UNL     1     -32.767   6.866   2.697  1.00 20.00     0.217 C 
HETATM    2  C2  UNL     1     -32.596   7.090   4.184  1.00 20.00     0.108 C 
HETATM    3  C3  UNL     1     -33.864   4.768   3.406  1.00 20.00     0.131 C 
HETATM    4  C4  UNL     1     -33.950   6.877   4.874  1.00 20.00    -0.001 C 
HETATM    5  C5  UNL     1     -34.449   5.400   4.698  1.00 20.00    -0.028 C 
HETATM    6  C6  UNL     1     -33.897   7.373   6.321  1.00 20.00     0.011 C 
HETATM    7  C7  UNL     1     -35.989   5.404   4.604  1.00 20.00     0.016 C 
HETATM    8  C8  UNL     1     -34.051   4.489   5.878  1.00 20.00     0.016 C 
HETATM    9  N9  UNL     1     -33.509   5.741   2.394  1.00 20.00    -0.360 N 
HETATM   10  O10 UNL     1     -32.279   7.616   1.857  1.00 20.00    -0.274 OA
HETATM   11  H25 UNL     1     -33.805   5.599   1.463  1.00 20.00     0.162 HD
ENDROOT
TORSDOF 0
