REMARK  0 active torsions:
REMARK  status: ('A' for Active; 'I' for Inactive)
ROOT
HETATM    1  C1  UNL     1     -34.504   5.628   5.533  1.00 20.00     0.105 C 
HETATM    2  C2  UNL     1     -33.838   6.793   5.640  1.00 20.00     0.056 C 
HETATM    3  C3  UNL     1     -34.637   4.994   4.197  1.00 20.00     0.196 C 
HETATM    4  C4  UNL     1     -33.319   6.991   3.393  1.00 20.00     0.035 C 
HETATM    5  C5  UNL     1     -33.898   5.643   3.064  1.00 20.00     0.205 C 
HETATM    6  C6  UNL     1     -33.633   7.509   6.953  1.00 20.00     0.072 C 
HETATM    7  C7  UNL     1     -32.731   7.810   2.268  1.00 20.00     0.068 C 
HETATM    8  N8  UNL     1     -33.285   7.490   4.588  1.00 20.00    -0.259 NA
HETATM    9  O9  UNL     1     -35.293   3.967   4.033  1.00 20.00    -0.289 OA
HETATM   10 CL10 UNL     1     -35.221   4.782   6.851  1.00 20.00    -0.078 Cl
HETATM   11 CL11 UNL     1     -32.561   4.559   2.627  1.00 20.00    -0.110 Cl
ENDROOT
TORSDOF 0
