REMARK  2 active torsions:
REMARK  status: ('A' for Active; 'I' for Inactive)
REMARK    1  A    between atoms: C3_3  and  C9_9 
REMARK    2  A    between atoms: C3_3  and  C10_10 
ROOT
HETATM    1  C3  UNL     1     -33.521   6.068   3.330  1.00 20.00     0.135 C 
HETATM    2  O11 UNL     1     -33.363   4.964   2.809  1.00 20.00    -0.297 OA
ENDROOT
BRANCH   1   3
HETATM    3  C9  UNL     1     -32.619   7.264   2.977  1.00 20.00     0.063 C 
HETATM    4  C4  UNL     1     -32.158   7.382   1.500  1.00 20.00     0.045 C 
HETATM    5  C1  UNL     1     -33.130   8.533   1.418  1.00 20.00    -0.088 C 
HETATM    6  C2  UNL     1     -33.657   9.202   0.391  1.00 20.00     0.014 C 
HETATM    7  C5  UNL     1     -33.288   8.661   2.913  1.00 20.00     0.045 C 
ENDBRANCH   1   3
BRANCH   1   8
HETATM    8  C10 UNL     1     -34.590   6.311   4.325  1.00 20.00     0.056 C 
HETATM    9  C7  UNL     1     -35.317   5.045   4.843  1.00 20.00     0.012 C 
HETATM   10  C6  UNL     1     -34.346   5.034   6.040  1.00 20.00     0.002 C 
HETATM   11  C8  UNL     1     -34.105   6.534   5.780  1.00 20.00     0.012 C 
ENDBRANCH   1   8
TORSDOF 2
