REMARK  1 active torsions:
REMARK  status: ('A' for Active; 'I' for Inactive)
REMARK    1  A    between atoms: C1_1  and  C2_2 
ROOT
HETATM    1  C1  UNL     1     -34.256   6.451   4.645  1.00 20.00     0.314 C 
HETATM    2  F3  UNL     1     -33.723   7.317   5.547  1.00 20.00    -0.228 F 
HETATM    3 CL5  UNL     1     -34.695   4.950   5.489  1.00 20.00    -0.085 Cl
ENDROOT
BRANCH   1   4
HETATM    4  C2  UNL     1     -33.241   6.173   3.554  1.00 20.00     0.314 C 
HETATM    5  F4  UNL     1     -32.917   7.339   2.933  1.00 20.00    -0.228 F 
HETATM    6 CL6  UNL     1     -33.907   5.052   2.347  1.00 20.00    -0.085 Cl
ENDBRANCH   1   4
TORSDOF 1
