REMARK  1 active torsions:
REMARK  status: ('A' for Active; 'I' for Inactive)
REMARK    1  A    between atoms: C4_4  and  C8_8 
ROOT
HETATM    1  C1  UNL     1     -33.226   5.041   2.469  1.00 20.00     0.030 A 
HETATM    2  C2  UNL     1     -33.693   6.876   3.953  1.00 20.00     0.055 A 
HETATM    3  C3  UNL     1     -33.616   4.188   3.489  1.00 20.00     0.119 A 
HETATM    4  C4  UNL     1     -33.268   6.409   2.713  1.00 20.00    -0.010 A 
HETATM    5  C5  UNL     1     -34.061   5.941   4.906  1.00 20.00     0.126 A 
HETATM    6  N9  UNL     1     -34.034   4.604   4.706  1.00 20.00    -0.249 NA
HETATM    7 CL12 UNL     1     -34.597   6.425   6.463  1.00 20.00    -0.062 Cl
ENDROOT
BRANCH   4   8
HETATM    8  C8  UNL     1     -32.844   7.410   1.608  1.00 20.00     0.173 C 
HETATM    9  C6  UNL     1     -33.064   6.986   0.147  1.00 20.00     0.218 C 
HETATM   10  O10 UNL     1     -33.664   8.267  -0.160  1.00 20.00    -0.384 OA
HETATM   11  C7  UNL     1     -33.832   8.533   1.253  1.00 20.00     0.218 C 
HETATM   12  F11 UNL     1     -31.592   7.824   1.900  1.00 20.00    -0.233 F 
ENDBRANCH   4   8
TORSDOF 1
