REMARK  0 active torsions:
REMARK  status: ('A' for Active; 'I' for Inactive)
ROOT
HETATM    1  C1  UNL     1     -32.975   6.390   4.199  1.00 20.00     0.023 C 
HETATM    2  C2  UNL     1     -33.053   7.050   3.037  1.00 20.00     0.047 C 
HETATM    3  C3  UNL     1     -34.165   5.505   4.534  1.00 20.00     0.040 C 
HETATM    4  C4  UNL     1     -32.067   8.002   2.471  1.00 20.00     0.076 C 
HETATM    5  C5  UNL     1     -34.928   6.132   5.706  1.00 20.00     0.029 C 
HETATM    6  C6  UNL     1     -33.716   4.095   4.912  1.00 20.00     0.029 C 
HETATM    7  O7  UNL     1     -34.198   6.807   2.292  1.00 20.00    -0.305 OA
HETATM    8  P8  UNL     1     -35.102   5.611   2.947  1.00 20.00     0.165 P 
HETATM    9  S9  UNL     1     -37.023   5.838   2.907  1.00 20.00    -0.049 SA
HETATM   10 CL10 UNL     1     -34.541   4.051   1.807  1.00 20.00    -0.054 Cl
ENDROOT
TORSDOF 0
