REMARK  1 active torsions:
REMARK  status: ('A' for Active; 'I' for Inactive)
REMARK    1  A    between atoms: C2_2  and  C3_3 
ROOT
HETATM    1  C1  UNL     1     -34.202   6.164   6.271  1.00 20.00     0.051 C 
HETATM    2  C3  UNL     1     -34.140   5.802   4.787  1.00 20.00     0.122 C 
HETATM    3 CL5  UNL     1     -33.289   4.232   4.597  1.00 20.00    -0.101 Cl
HETATM    4 CL6  UNL     1     -35.826   5.578   4.193  1.00 20.00    -0.101 Cl
ENDROOT
BRANCH   2   5
HETATM    5  C2  UNL     1     -33.475   6.884   3.926  1.00 20.00     0.156 C 
HETATM    6 CL4  UNL     1     -32.872   6.278   2.359  1.00 20.00    -0.127 Cl
ENDBRANCH   2   5
TORSDOF 1
