REMARK  0 active torsions:
REMARK  status: ('A' for Active; 'I' for Inactive)
ROOT
HETATM    1  C1  UNL     1     -34.328   5.555   4.195  1.00 20.00     0.227 C 
HETATM    2 CL2  UNL     1     -33.546   4.287   3.231  1.00 20.00    -0.076 Cl
HETATM    3 CL3  UNL     1     -33.242   6.945   4.379  1.00 20.00    -0.076 Cl
HETATM    4 BR4  UNL     1     -35.944   6.139   3.272  1.00 20.00    -0.037 Br
HETATM    5 BR5  UNL     1     -34.734   4.838   5.963  1.00 20.00    -0.037 Br
ENDROOT
TORSDOF 0
