REMARK  2 active torsions:
REMARK  status: ('A' for Active; 'I' for Inactive)
REMARK    1  A    between atoms: C2_2  and  O6_6 
REMARK    2  A    between atoms: C5_5  and  O6_6 
ROOT
HETATM    1  C1  UNL     1     -34.033   7.412   5.572  1.00 20.00     0.099 A 
HETATM    2  C2  UNL     1     -33.246   6.721   4.495  1.00 20.00     0.181 A 
HETATM    3  C3  UNL     1     -34.386   6.008   5.170  1.00 20.00     0.207 A 
HETATM    4  F7  UNL     1     -35.552   5.865   4.427  1.00 20.00    -0.223 F 
HETATM    5 CL8  UNL     1     -34.022   4.698   6.276  1.00 20.00    -0.080 Cl
ENDROOT
BRANCH   2   6
HETATM    6  O6  UNL     1     -33.487   7.173   3.153  1.00 20.00    -0.382 OA
BRANCH   6   7
HETATM    7  C5  UNL     1     -32.694   6.454   2.226  1.00 20.00     0.164 C 
HETATM    8  C4  UNL     1     -33.039   4.983   2.319  1.00 20.00     0.033 C 
ENDBRANCH   6   7
ENDBRANCH   2   6
TORSDOF 2
