REMARK  2 active torsions:
REMARK  status: ('A' for Active; 'I' for Inactive)
REMARK    1  A    between atoms: C3_3  and  C4_4 
REMARK    2  A    between atoms: C5_5  and  C9_9 
ROOT
HETATM    1  C1  UNL     1     -34.566   7.923   2.152  1.00 20.00    -0.024 C 
HETATM    2  C2  UNL     1     -33.321   8.110   1.683  1.00 20.00    -0.087 C 
HETATM    3  C6  UNL     1     -34.959   6.781   3.044  1.00 20.00     0.036 C 
HETATM    4  C7  UNL     1     -32.201   7.149   1.992  1.00 20.00     0.034 C 
HETATM    5  C8  UNL     1     -32.678   5.819   2.584  1.00 20.00     0.013 C 
HETATM    6  C9  UNL     1     -33.756   6.040   3.651  1.00 20.00     0.018 C 
HETATM    7  C10 UNL     1     -32.964   9.288   0.826  1.00 20.00     0.043 C 
ENDROOT
BRANCH   6   8
HETATM    8  C5  UNL     1     -34.183   4.743   4.269  1.00 20.00    -0.076 C 
HETATM    9  C3  UNL     1     -33.737   3.516   3.946  1.00 20.00     0.044 C 
HETATM   10  C11 UNL     1     -35.217   4.897   5.355  1.00 20.00     0.044 C 
BRANCH   9  11
HETATM   11  C4  UNL     1     -34.178   2.253   4.574  1.00 20.00     0.259 C 
HETATM   12  O12 UNL     1     -35.308   2.123   5.031  1.00 20.00    -0.302 OA
ENDBRANCH   9  11
ENDBRANCH   6   8
TORSDOF 2
