REMARK  2 active torsions:
REMARK  status: ('A' for Active; 'I' for Inactive)
REMARK    1  A    between atoms: C2_2  and  O6_6 
REMARK    2  A    between atoms: C5_5  and  O6_6 
ROOT
HETATM    1  C1  UNL     1     -35.172   6.486   4.303  1.00 20.00     0.099 A 
HETATM    2  C2  UNL     1     -33.675   6.614   4.290  1.00 20.00     0.181 A 
HETATM    3  C3  UNL     1     -34.319   5.366   4.830  1.00 20.00     0.207 A 
HETATM    4  F7  UNL     1     -34.295   5.228   6.214  1.00 20.00    -0.223 F 
HETATM    5 CL8  UNL     1     -34.249   3.868   3.922  1.00 20.00    -0.080 Cl
ENDROOT
BRANCH   2   6
HETATM    6  O6  UNL     1     -33.048   6.534   2.999  1.00 20.00    -0.382 OA
BRANCH   6   7
HETATM    7  C5  UNL     1     -33.144   7.768   2.313  1.00 20.00     0.164 C 
HETATM    8  C4  UNL     1     -32.472   7.635   0.963  1.00 20.00     0.033 C 
ENDBRANCH   6   7
ENDBRANCH   2   6
TORSDOF 2
