REMARK  2 active torsions:
REMARK  status: ('A' for Active; 'I' for Inactive)
REMARK    1  A    between atoms: C1_1  and  P9_9 
REMARK    2  A    between atoms: C2_2  and  P9_9 
ROOT
HETATM    1  P9  UNL     1     -33.015   5.960   4.202  1.00 20.00     0.209 P 
HETATM    2 CL10 UNL     1     -33.738   7.725   5.078  1.00 20.00    -0.077 Cl
ENDROOT
BRANCH   1   3
HETATM    3  C1  UNL     1     -34.371   4.856   4.410  1.00 20.00     0.429 C 
HETATM    4  F3  UNL     1     -34.120   3.811   3.620  1.00 20.00    -0.165 F 
HETATM    5  F4  UNL     1     -34.370   4.518   5.701  1.00 20.00    -0.165 F 
HETATM    6  F5  UNL     1     -35.484   5.502   4.058  1.00 20.00    -0.165 F 
ENDBRANCH   1   3
BRANCH   1   7
HETATM    7  C2  UNL     1     -33.037   6.357   2.486  1.00 20.00     0.429 C 
HETATM    8  F6  UNL     1     -32.018   7.196   2.290  1.00 20.00    -0.165 F 
HETATM    9  F7  UNL     1     -34.215   6.943   2.263  1.00 20.00    -0.165 F 
HETATM   10  F8  UNL     1     -32.900   5.223   1.800  1.00 20.00    -0.165 F 
ENDBRANCH   1   7
TORSDOF 2
