REMARK  0 active torsions:
REMARK  status: ('A' for Active; 'I' for Inactive)
ROOT
HETATM    1  C1  UNL     1     -34.350   4.569   4.060  1.00 20.00    -0.071 C 
HETATM    2  C2  UNL     1     -34.424   3.260   3.793  1.00 20.00    -0.027 C 
HETATM    3  C3  UNL     1     -34.039   5.693   6.236  1.00 20.00     0.009 C 
HETATM    4  C4  UNL     1     -33.304   6.854   5.542  1.00 20.00     0.006 C 
HETATM    5  C5  UNL     1     -35.412   6.604   4.519  1.00 20.00     0.014 C 
HETATM    6  C6  UNL     1     -35.083   5.272   5.187  1.00 20.00     0.015 C 
HETATM    7  C7  UNL     1     -33.949   6.886   4.138  1.00 20.00    -0.002 C 
HETATM    8  C8  UNL     1     -33.573   5.628   3.285  1.00 20.00    -0.021 C 
HETATM    9  C9  UNL     1     -35.246   2.293   4.576  1.00 20.00     0.036 C 
HETATM   10  C10 UNL     1     -34.083   5.773   1.839  1.00 20.00     0.020 C 
HETATM   11  C11 UNL     1     -32.064   5.347   3.246  1.00 20.00     0.020 C 
ENDROOT
TORSDOF 0
