REMARK  2 active torsions:
REMARK  status: ('A' for Active; 'I' for Inactive)
REMARK    1  A    between atoms: C1_1  and  C2_2 
REMARK    2  A    between atoms: C1_1  and  C3_3 
ROOT
HETATM    1  C1  UNL     1     -33.479   6.260   3.727  1.00 20.00     0.168 C 
ENDROOT
BRANCH   1   2
HETATM    2  C2  UNL     1     -33.343   5.946   2.249  1.00 20.00     0.360 C 
HETATM    3  F4  UNL     1     -32.462   6.816   1.691  1.00 20.00    -0.214 F 
HETATM    4  F5  UNL     1     -32.817   4.707   2.086  1.00 20.00    -0.214 F 
ENDBRANCH   1   2
BRANCH   1   5
HETATM    5  C3  UNL     1     -34.425   5.335   4.478  1.00 20.00     0.325 C 
HETATM    6  F6  UNL     1     -35.669   5.417   3.942  1.00 20.00    -0.188 F 
HETATM    7  F7  UNL     1     -34.015   4.051   4.299  1.00 20.00    -0.188 F 
HETATM    8 CL8  UNL     1     -34.498   5.681   6.213  1.00 20.00    -0.048 Cl
ENDBRANCH   1   5
TORSDOF 2
