REMARK  1 active torsions:
REMARK  status: ('A' for Active; 'I' for Inactive)
REMARK    1  A    between atoms: C1_1  and  C2_2 
ROOT
HETATM    1  C1  UNL     1     -34.229   6.566   5.031  1.00 20.00     0.314 C 
HETATM    2  F3  UNL     1     -33.312   7.368   5.633  1.00 20.00    -0.228 F 
HETATM    3 CL5  UNL     1     -34.784   5.354   6.206  1.00 20.00    -0.085 Cl
ENDROOT
BRANCH   1   4
HETATM    4  C2  UNL     1     -33.597   5.894   3.828  1.00 20.00     0.314 C 
HETATM    5  F4  UNL     1     -34.513   5.090   3.227  1.00 20.00    -0.228 F 
HETATM    6 CL6  UNL     1     -33.046   7.105   2.650  1.00 20.00    -0.085 Cl
ENDBRANCH   1   4
TORSDOF 1
