REMARK  0 active torsions:
REMARK  status: ('A' for Active; 'I' for Inactive)
ROOT
HETATM    1  C1  UNL     1     -33.550   6.094   3.043  1.00 20.00    -0.071 C 
HETATM    2  C2  UNL     1     -32.812   6.389   1.967  1.00 20.00    -0.027 C 
HETATM    3  C3  UNL     1     -33.507   7.128   5.285  1.00 20.00     0.009 C 
HETATM    4  C4  UNL     1     -33.925   5.789   5.921  1.00 20.00     0.006 C 
HETATM    5  C5  UNL     1     -35.521   6.354   4.280  1.00 20.00     0.014 C 
HETATM    6  C6  UNL     1     -34.240   7.110   3.933  1.00 20.00     0.015 C 
HETATM    7  C7  UNL     1     -34.766   5.123   4.808  1.00 20.00    -0.002 C 
HETATM    8  C8  UNL     1     -33.893   4.707   3.576  1.00 20.00    -0.021 C 
HETATM    9  C9  UNL     1     -32.559   7.778   1.484  1.00 20.00     0.036 C 
HETATM   10  C10 UNL     1     -32.649   3.893   3.957  1.00 20.00     0.020 C 
HETATM   11  C11 UNL     1     -34.722   3.892   2.566  1.00 20.00     0.020 C 
ENDROOT
TORSDOF 0
