REMARK  1 active torsions:
REMARK  status: ('A' for Active; 'I' for Inactive)
REMARK    1  A    between atoms: C1_1  and  S3_3 
ROOT
HETATM    1  C1  UNL     1     -33.428   6.252   3.337  1.00 20.00     0.295 C 
HETATM    2  O2  UNL     1     -33.358   5.060   3.060  1.00 20.00    -0.266 OA
HETATM    3 CL4  UNL     1     -32.933   7.561   2.302  1.00 20.00    -0.031 Cl
ENDROOT
BRANCH   1   4
HETATM    4  S3  UNL     1     -34.066   6.819   4.891  1.00 20.00     0.036 SA
HETATM    5 CL5  UNL     1     -34.520   5.052   5.790  1.00 20.00    -0.034 Cl
ENDBRANCH   1   4
TORSDOF 1
