REMARK  1 active torsions:
REMARK  status: ('A' for Active; 'I' for Inactive)
REMARK    1  A    between atoms: C2_2  and  C6_6 
ROOT
HETATM    1  C3  UNL     1     -34.179   4.871   2.258  1.00 20.00     0.006 C 
HETATM    2  C4  UNL     1     -35.527   4.886   2.991  1.00 20.00     0.006 C 
HETATM    3  C5  UNL     1     -33.969   3.744   4.333  1.00 20.00     0.010 C 
HETATM    4  C6  UNL     1     -32.982   5.894   4.284  1.00 20.00     0.025 C 
HETATM    5  C7  UNL     1     -33.161   4.643   3.393  1.00 20.00    -0.005 C 
HETATM    6  C8  UNL     1     -35.113   4.761   4.468  1.00 20.00    -0.006 C 
HETATM    7  C9  UNL     1     -34.374   6.049   4.971  1.00 20.00    -0.036 C 
HETATM    8  C11 UNL     1     -34.219   6.000   6.507  1.00 20.00     0.016 C 
HETATM    9  C12 UNL     1     -35.136   7.342   4.637  1.00 20.00     0.016 C 
ENDROOT
BRANCH   4  10
HETATM   10  C2  UNL     1     -32.425   7.077   3.559  1.00 20.00    -0.088 C 
HETATM   11  C1  UNL     1     -32.177   7.049   2.241  1.00 20.00     0.014 C 
HETATM   12  C10 UNL     1     -32.162   8.299   4.389  1.00 20.00     0.043 C 
ENDBRANCH   4  10
TORSDOF 1
