REMARK  2 active torsions:
REMARK  status: ('A' for Active; 'I' for Inactive)
REMARK    1  A    between atoms: C1_1  and  C4_4 
REMARK    2  A    between atoms: C4_4  and  C5_5 
ROOT
HETATM    1  C2  UNL     1     -33.693   7.858   3.472  1.00 20.00     0.027 A 
HETATM    2  C3  UNL     1     -32.348   7.266   3.765  1.00 20.00     0.027 A 
HETATM    3  C4  UNL     1     -33.566   6.367   3.706  1.00 20.00     0.110 A 
ENDROOT
BRANCH   3   4
HETATM    4  C1  UNL     1     -33.694   5.487   2.518  1.00 20.00     0.249 C 
HETATM    5  O6  UNL     1     -32.808   4.729   2.140  1.00 20.00    -0.306 OA
ENDBRANCH   3   4
BRANCH   3   6
HETATM    6  C5  UNL     1     -34.088   5.832   5.015  1.00 20.00     0.401 C 
HETATM    7  F7  UNL     1     -33.446   4.696   5.358  1.00 20.00    -0.170 F 
HETATM    8  F8  UNL     1     -33.909   6.729   6.005  1.00 20.00    -0.170 F 
HETATM    9  F9  UNL     1     -35.405   5.558   4.931  1.00 20.00    -0.170 F 
ENDBRANCH   3   6
TORSDOF 2
