REMARK  0 active torsions:
REMARK  status: ('A' for Active; 'I' for Inactive)
ROOT
HETATM    1  C1  UNL     1     -33.261   6.192   2.474  1.00 20.00     0.006 A 
HETATM    2  C2  UNL     1     -33.913   5.999   3.617  1.00 20.00    -0.008 A 
HETATM    3  C3  UNL     1     -33.097   6.736   4.583  1.00 20.00     0.038 A 
HETATM    4  C4  UNL     1     -32.070   7.064   2.681  1.00 20.00     0.177 A 
HETATM    5  C5  UNL     1     -35.123   5.248   4.012  1.00 20.00     0.310 C 
HETATM    6  C6  UNL     1     -33.468   6.686   6.038  1.00 20.00     0.089 C 
HETATM    7  C7  UNL     1     -34.891   6.158   6.243  1.00 20.00     0.276 C 
HETATM    8  N8  UNL     1     -32.048   7.364   4.133  1.00 20.00    -0.290 NA
HETATM    9  N9  UNL     1     -35.155   4.948   5.451  1.00 20.00     0.087 N 
HETATM   10  H19 UNL     1     -36.075   4.582   5.693  1.00 20.00     0.316 HD
ENDROOT
TORSDOF 0
