REMARK  2 active torsions:
REMARK  status: ('A' for Active; 'I' for Inactive)
REMARK    1  A    between atoms: C7_7  and  O10_10 
REMARK    2  A    between atoms: C8_8  and  O10_10 
ROOT
HETATM    1  C1  UNL     1     -32.909   5.315   2.158  1.00 20.00     0.024 C 
HETATM    2  C2  UNL     1     -33.805   4.638   2.888  1.00 20.00     0.118 C 
HETATM    3  C3  UNL     1     -33.794   6.091   4.630  1.00 20.00     0.188 C 
HETATM    4  C4  UNL     1     -32.556   6.795   4.135  1.00 20.00     0.127 C 
HETATM    5  C7  UNL     1     -32.364   6.623   2.633  1.00 20.00     0.154 C 
HETATM    6  N9  UNL     1     -34.353   5.066   4.069  1.00 20.00    -0.237 NA
HETATM    7  F11 UNL     1     -34.333   6.531   5.776  1.00 20.00    -0.189 F 
ENDROOT
BRANCH   5   8
HETATM    8  O10 UNL     1     -33.027   7.683   1.950  1.00 20.00    -0.376 OA
BRANCH   8   9
HETATM    9  C8  UNL     1     -32.358   8.023   0.744  1.00 20.00     0.122 A 
HETATM   10  C5  UNL     1     -33.125   7.793  -0.526  1.00 20.00     0.034 A 
HETATM   11  C6  UNL     1     -32.921   9.189  -0.016  1.00 20.00     0.034 A 
ENDBRANCH   8   9
ENDBRANCH   5   8
TORSDOF 2
