REMARK  1 active torsions:
REMARK  status: ('A' for Active; 'I' for Inactive)
REMARK    1  A    between atoms: C4_4  and  C9_9 
ROOT
HETATM    1  C1  UNL     1     -34.083   6.620   3.688  1.00 20.00     0.065 A 
HETATM    2  C2  UNL     1     -31.997   7.721   4.084  1.00 20.00     0.095 A 
HETATM    3  C3  UNL     1     -33.263   6.959   5.909  1.00 20.00     0.142 A 
HETATM    4  C4  UNL     1     -32.948   7.252   3.189  1.00 20.00    -0.031 A 
HETATM    5  C5  UNL     1     -34.246   6.470   5.062  1.00 20.00     0.187 A 
HETATM    6  N10 UNL     1     -32.179   7.563   5.403  1.00 20.00    -0.371 N 
HETATM    7  O11 UNL     1     -35.285   5.893   5.538  1.00 20.00    -0.287 OA
HETATM    8  H24 UNL     1     -31.469   7.916   6.043  1.00 20.00     0.164 HD
ENDROOT
BRANCH   4   9
HETATM    9  C9  UNL     1     -32.748   7.429   1.675  1.00 20.00    -0.023 C 
HETATM   10  C6  UNL     1     -33.909   8.263   1.092  1.00 20.00     0.019 C 
HETATM   11  C7  UNL     1     -32.721   6.045   0.990  1.00 20.00     0.019 C 
HETATM   12  C8  UNL     1     -31.434   8.150   1.298  1.00 20.00     0.019 C 
ENDBRANCH   4   9
TORSDOF 1
