REMARK  0 active torsions:
REMARK  status: ('A' for Active; 'I' for Inactive)
ROOT
HETATM    1  C1  UNL     1     -33.567   5.107   2.459  1.00 20.00     0.050 C 
HETATM    2  C2  UNL     1     -34.172   4.245   3.548  1.00 20.00     0.171 C 
HETATM    3  C3  UNL     1     -33.128   6.316   3.253  1.00 20.00     0.128 C 
HETATM    4  C4  UNL     1     -34.283   6.470   4.228  1.00 20.00     0.235 C 
HETATM    5  O5  UNL     1     -34.757   5.142   4.506  1.00 20.00    -0.369 OA
HETATM    6 CL6  UNL     1     -32.880   7.743   2.240  1.00 20.00    -0.121 Cl
HETATM    7 CL7  UNL     1     -33.789   7.268   5.729  1.00 20.00    -0.094 Cl
ENDROOT
TORSDOF 0
