REMARK  0 active torsions:
REMARK  status: ('A' for Active; 'I' for Inactive)
ROOT
HETATM    1  C1  UNL     1     -34.251   6.639   5.576  1.00 20.00     0.032 A 
HETATM    2  C2  UNL     1     -33.361   7.232   3.266  1.00 20.00     0.037 A 
HETATM    3  C3  UNL     1     -33.061   5.347   1.738  1.00 20.00     0.003 A 
HETATM    4  C4  UNL     1     -34.564   5.409   6.018  1.00 20.00     0.118 A 
HETATM    5  C5  UNL     1     -33.805   6.438   4.239  1.00 20.00    -0.008 A 
HETATM    6  C6  UNL     1     -32.981   6.667   1.987  1.00 20.00     0.031 A 
HETATM    7  C7  UNL     1     -33.919   4.982   4.037  1.00 20.00     0.048 A 
HETATM    8  C8  UNL     1     -33.544   4.330   2.739  1.00 20.00     0.088 A 
HETATM    9  N9  UNL     1     -34.373   4.378   5.106  1.00 20.00    -0.264 NA
HETATM   10 CL10 UNL     1     -32.414   7.753   0.769  1.00 20.00    -0.085 Cl
ENDROOT
TORSDOF 0
