REMARK  0 active torsions:
REMARK  status: ('A' for Active; 'I' for Inactive)
ROOT
HETATM    1  C1  UNL     1     -33.697   5.079   2.516  1.00 20.00     0.057 A 
HETATM    2  C2  UNL     1     -34.618   4.639   4.866  1.00 20.00     0.008 A 
HETATM    3  C3  UNL     1     -33.551   7.179   5.519  1.00 20.00     0.143 A 
HETATM    4  C4  UNL     1     -34.002   5.294   3.890  1.00 20.00    -0.005 A 
HETATM    5  C5  UNL     1     -33.034   6.190   2.145  1.00 20.00     0.127 A 
HETATM    6  C6  UNL     1     -33.435   6.603   4.174  1.00 20.00     0.085 A 
HETATM    7  C7  UNL     1     -34.741   5.222   6.246  1.00 20.00     0.176 A 
HETATM    8  N8  UNL     1     -34.145   6.554   6.468  1.00 20.00    -0.296 NA
HETATM    9  N9  UNL     1     -32.856   7.148   3.141  1.00 20.00    -0.235 NA
HETATM   10 CL10 UNL     1     -32.429   6.455   0.570  1.00 20.00    -0.062 Cl
ENDROOT
TORSDOF 0
