REMARK  0 active torsions:
REMARK  status: ('A' for Active; 'I' for Inactive)
ROOT
HETATM    1  C1  UNL     1     -33.239   7.797   4.106  1.00 20.00     0.047 C 
HETATM    2  C2  UNL     1     -33.661   7.147   5.337  1.00 20.00     0.042 C 
HETATM    3  C3  UNL     1     -34.103   3.753   3.942  1.00 20.00     0.010 C 
HETATM    4  C4  UNL     1     -33.238   3.568   2.939  1.00 20.00     0.114 C 
HETATM    5  C5  UNL     1     -33.081   7.099   2.975  1.00 20.00     0.142 C 
HETATM    6  C6  UNL     1     -34.196   5.913   5.323  1.00 20.00     0.107 C 
HETATM    7  C7  UNL     1     -33.383   5.660   3.029  1.00 20.00     0.087 C 
HETATM    8  C8  UNL     1     -34.433   5.200   4.033  1.00 20.00     0.127 C 
HETATM    9  N9  UNL     1     -32.794   4.725   2.352  1.00 20.00    -0.262 NA
HETATM   10  F10 UNL     1     -32.568   7.600   1.841  1.00 20.00    -0.204 F 
HETATM   11  F11 UNL     1     -34.572   5.343   6.488  1.00 20.00    -0.210 F 
ENDROOT
TORSDOF 0
