REMARK  1 active torsions:
REMARK  status: ('A' for Active; 'I' for Inactive)
REMARK    1  A    between atoms: C2_2  and  C4_4 
ROOT
HETATM    1  C1  UNL     1     -34.843   5.302   5.491  1.00 20.00     0.026 A 
HETATM    2  C2  UNL     1     -34.346   5.724   4.330  1.00 20.00     0.068 A 
HETATM    3  C3  UNL     1     -34.582   6.402   6.446  1.00 20.00     0.203 A 
HETATM    4  N5  UNL     1     -33.791   6.976   4.419  1.00 20.00    -0.159 NA
HETATM    5  N6  UNL     1     -33.896   7.412   5.601  1.00 20.00    -0.189 NA
ENDROOT
BRANCH   2   6
HETATM    6  C4  UNL     1     -34.345   4.997   3.035  1.00 20.00     0.175 C 
HETATM    7 CL7  UNL     1     -32.661   4.826   2.529  1.00 20.00    -0.124 Cl
ENDBRANCH   2   6
TORSDOF 1
