REMARK  1 active torsions:
REMARK  status: ('A' for Active; 'I' for Inactive)
REMARK    1  A    between atoms: C2_2  and  C7_7 
ROOT
HETATM    1  C1  UNL     1     -33.233   5.121   2.117  1.00 20.00     0.149 A 
HETATM    2  C2  UNL     1     -33.078   6.425   2.670  1.00 20.00    -0.001 A 
HETATM    3  C3  UNL     1     -33.584   6.295   3.931  1.00 20.00     0.039 A 
HETATM    4  C4  UNL     1     -33.843   7.031   5.181  1.00 20.00     0.061 C 
HETATM    5  C5  UNL     1     -34.794   6.056   5.932  1.00 20.00     0.028 C 
HETATM    6  C6  UNL     1     -34.559   4.659   5.322  1.00 20.00     0.151 C 
HETATM    7  N8  UNL     1     -33.792   4.244   2.970  1.00 20.00    -0.184 NA
HETATM    8  N9  UNL     1     -33.982   5.006   4.041  1.00 20.00    -0.274 N 
ENDROOT
BRANCH   2   9
HETATM    9  C7  UNL     1     -32.508   7.620   2.030  1.00 20.00     0.156 C 
HETATM   10 CL10 UNL     1     -33.644   8.328   0.848  1.00 20.00    -0.125 Cl
ENDBRANCH   2   9
TORSDOF 1
