REMARK  0 active torsions:
REMARK  status: ('A' for Active; 'I' for Inactive)
ROOT
HETATM    1  C1  UNL     1     -35.116   5.626   6.035  1.00 20.00     0.124 C 
HETATM    2  C2  UNL     1     -33.785   6.170   4.359  1.00 20.00     0.044 C 
HETATM    3  C3  UNL     1     -33.020   5.866   3.129  1.00 20.00     0.057 C 
HETATM    4  C4  UNL     1     -33.572   4.458   2.838  1.00 20.00     0.007 C 
HETATM    5  C5  UNL     1     -34.349   4.016   4.098  1.00 20.00     0.016 C 
HETATM    6  C6  UNL     1     -34.959   5.305   4.594  1.00 20.00     0.077 C 
HETATM    7  N7  UNL     1     -34.353   6.597   6.428  1.00 20.00    -0.166 NA
HETATM    8  N8  UNL     1     -33.482   6.955   5.339  1.00 20.00    -0.159 NA
ENDROOT
TORSDOF 0
