REMARK  0 active torsions:
REMARK  status: ('A' for Active; 'I' for Inactive)
ROOT
HETATM    1  C1  UNL     1     -33.349   8.716   0.662  1.00 20.00     0.013 C 
HETATM    2  C2  UNL     1     -33.334   7.946   1.583  1.00 20.00    -0.107 C 
HETATM    3  C3  UNL     1     -33.209   5.557   2.175  1.00 20.00     0.048 C 
HETATM    4  C4  UNL     1     -34.628   7.137   3.518  1.00 20.00     0.048 C 
HETATM    5  C5  UNL     1     -33.490   4.509   3.247  1.00 20.00     0.169 C 
HETATM    6  C6  UNL     1     -34.827   5.998   4.513  1.00 20.00     0.169 C 
HETATM    7  C7  UNL     1     -33.315   6.997   2.719  1.00 20.00     0.023 C 
HETATM    8  C8  UNL     1     -32.101   7.335   3.603  1.00 20.00     0.029 C 
HETATM    9  O9  UNL     1     -34.760   4.734   3.855  1.00 20.00    -0.391 OA
ENDROOT
TORSDOF 0
