REMARK  1 active torsions:
REMARK  status: ('A' for Active; 'I' for Inactive)
REMARK    1  A    between atoms: C4_4  and  C6_6 
ROOT
HETATM    1  C1  UNL     1     -33.749   7.003   3.474  1.00 20.00     0.070 A 
HETATM    2  C2  UNL     1     -33.900   4.643   3.723  1.00 20.00     0.129 A 
HETATM    3  C3  UNL     1     -33.070   5.501   1.760  1.00 20.00     0.170 A 
HETATM    4  C4  UNL     1     -34.096   5.907   4.256  1.00 20.00     0.027 A 
HETATM    5  C5  UNL     1     -33.226   6.805   2.201  1.00 20.00     0.190 A 
HETATM    6  N7  UNL     1     -33.395   4.411   2.491  1.00 20.00    -0.268 NA
HETATM    7  O8  UNL     1     -32.899   7.796   1.460  1.00 20.00    -0.287 OA
ENDROOT
BRANCH   4   8
HETATM    8  C6  UNL     1     -34.658   6.084   5.621  1.00 20.00     0.388 C 
HETATM    9  F9  UNL     1     -34.169   7.211   6.207  1.00 20.00    -0.209 F 
HETATM   10  F10 UNL     1     -34.306   5.049   6.431  1.00 20.00    -0.209 F 
ENDBRANCH   4   8
TORSDOF 1
