REMARK  0 active torsions:
REMARK  status: ('A' for Active; 'I' for Inactive)
ROOT
HETATM    1  C1  UNL     1     -33.541   7.391   5.654  1.00 20.00     0.004 A 
HETATM    2  C2  UNL     1     -33.162   6.878   4.486  1.00 20.00    -0.036 A 
HETATM    3  C3  UNL     1     -34.028   5.704   4.355  1.00 20.00     0.035 A 
HETATM    4  C4  UNL     1     -34.601   6.558   6.287  1.00 20.00     0.177 A 
HETATM    5  C5  UNL     1     -32.167   7.288   3.473  1.00 20.00     0.040 C 
HETATM    6  C6  UNL     1     -33.979   4.868   3.105  1.00 20.00     0.059 C 
HETATM    7  C7  UNL     1     -32.453   6.634   2.119  1.00 20.00     0.005 C 
HETATM    8  C8  UNL     1     -32.727   5.136   2.272  1.00 20.00     0.006 C 
HETATM    9  N9  UNL     1     -34.858   5.458   5.329  1.00 20.00    -0.290 NA
ENDROOT
TORSDOF 0
