REMARK  1 active torsions:
REMARK  status: ('A' for Active; 'I' for Inactive)
REMARK    1  A    between atoms: C3_3  and  C6_6 
ROOT
HETATM    1  C1  UNL     1     -33.670   6.188   3.796  1.00 20.00     0.055 A 
HETATM    2  C2  UNL     1     -32.862   4.945   1.936  1.00 20.00     0.160 A 
HETATM    3  C3  UNL     1     -34.120   4.998   4.357  1.00 20.00    -0.001 A 
HETATM    4  C4  UNL     1     -33.028   6.170   2.563  1.00 20.00     0.134 A 
HETATM    5  C5  UNL     1     -33.905   3.826   3.650  1.00 20.00     0.133 A 
HETATM    6  N7  UNL     1     -33.286   3.769   2.450  1.00 20.00    -0.245 NA
HETATM    7  F8  UNL     1     -32.586   7.299   1.999  1.00 20.00    -0.205 F 
HETATM    8 CL9  UNL     1     -34.415   2.292   4.238  1.00 20.00    -0.062 Cl
ENDROOT
BRANCH   3   9
HETATM    9  C6  UNL     1     -34.806   5.023   5.680  1.00 20.00     0.156 C 
HETATM   10 CL10 UNL     1     -34.543   6.581   6.496  1.00 20.00    -0.125 Cl
ENDBRANCH   3   9
TORSDOF 1
