REMARK  2 active torsions:
REMARK  status: ('A' for Active; 'I' for Inactive)
REMARK    1  A    between atoms: C7_7  and  P9_9 
REMARK    2  A    between atoms: C8_8  and  P9_9 
ROOT
HETATM    1  P9  UNL     1     -32.913   6.318   4.035  1.00 20.00    -0.001 P 
HETATM    2 CL10 UNL     1     -33.621   8.237   4.481  1.00 20.00    -0.094 Cl
ENDROOT
BRANCH   1   3
HETATM    3  C7  UNL     1     -33.462   6.215   2.236  1.00 20.00    -0.014 C 
HETATM    4  C1  UNL     1     -34.988   6.055   2.189  1.00 20.00     0.021 C 
HETATM    5  C2  UNL     1     -33.052   7.507   1.515  1.00 20.00     0.021 C 
HETATM    6  C3  UNL     1     -32.791   5.009   1.564  1.00 20.00     0.021 C 
ENDBRANCH   1   3
BRANCH   1   7
HETATM    7  C8  UNL     1     -34.235   5.288   4.766  1.00 20.00    -0.014 C 
HETATM    8  C4  UNL     1     -34.173   3.884   4.148  1.00 20.00     0.021 C 
HETATM    9  C5  UNL     1     -34.016   5.200   6.283  1.00 20.00     0.021 C 
HETATM   10  C6  UNL     1     -35.602   5.925   4.475  1.00 20.00     0.021 C 
ENDBRANCH   1   7
TORSDOF 2
