REMARK  1 active torsions:
REMARK  status: ('A' for Active; 'I' for Inactive)
REMARK    1  A    between atoms: C1_1  and  C4_4 
ROOT
HETATM    1  C2  UNL     1     -33.977   5.069   5.826  1.00 20.00     0.038 C 
HETATM    2  C3  UNL     1     -34.006   6.401   6.550  1.00 20.00     0.169 C 
HETATM    3  C4  UNL     1     -34.060   6.834   4.253  1.00 20.00     0.190 C 
HETATM    4  C5  UNL     1     -34.572   5.405   4.464  1.00 20.00    -0.013 C 
HETATM    5  C6  UNL     1     -36.113   5.414   4.541  1.00 20.00     0.018 C 
HETATM    6  C7  UNL     1     -34.148   4.408   3.382  1.00 20.00     0.018 C 
HETATM    7  O9  UNL     1     -33.916   7.428   5.552  1.00 20.00    -0.378 OA
ENDROOT
BRANCH   3   8
HETATM    8  C1  UNL     1     -32.692   6.932   3.651  1.00 20.00     0.263 C 
HETATM    9  O8  UNL     1     -32.491   7.114   2.455  1.00 20.00    -0.304 OA
ENDBRANCH   3   8
TORSDOF 1
