REMARK  2 active torsions:
REMARK  status: ('A' for Active; 'I' for Inactive)
REMARK    1  A    between atoms: C7_7  and  O10_10 
REMARK    2  A    between atoms: C9_9  and  O10_10 
ROOT
HETATM    1  C1  UNL     1     -33.264   4.405   2.210  1.00 20.00     0.000 C 
HETATM    2  C2  UNL     1     -33.865   4.515   3.519  1.00 20.00     0.022 C 
HETATM    3  C3  UNL     1     -33.079   5.486   1.439  1.00 20.00     0.008 C 
HETATM    4  C4  UNL     1     -34.000   5.712   4.109  1.00 20.00     0.048 C 
HETATM    5  C7  UNL     1     -33.474   6.862   1.910  1.00 20.00     0.184 C 
HETATM    6  C8  UNL     1     -33.545   6.983   3.446  1.00 20.00     0.247 C 
HETATM    7  F11 UNL     1     -32.300   7.296   3.914  1.00 20.00    -0.240 F 
HETATM    8 CL12 UNL     1     -34.688   5.863   5.681  1.00 20.00    -0.086 Cl
ENDROOT
BRANCH   5   9
HETATM    9  O10 UNL     1     -32.556   7.834   1.418  1.00 20.00    -0.373 OA
BRANCH   9  10
HETATM   10  C9  UNL     1     -33.193   9.084   1.206  1.00 20.00     0.122 A 
HETATM   11  C5  UNL     1     -32.570   9.979   0.173  1.00 20.00     0.034 A 
HETATM   12  C6  UNL     1     -33.858   9.269  -0.128  1.00 20.00     0.034 A 
ENDBRANCH   9  10
ENDBRANCH   5   9
TORSDOF 2
