REMARK  0 active torsions:
REMARK  status: ('A' for Active; 'I' for Inactive)
ROOT
HETATM    1  C1  UNL     1     -34.264   5.494   6.520  1.00 20.00     0.002 C 
HETATM    2  C2  UNL     1     -34.750   4.786   5.489  1.00 20.00     0.028 C 
HETATM    3  C3  UNL     1     -33.310   6.575   6.343  1.00 20.00    -0.003 C 
HETATM    4  C4  UNL     1     -33.106   7.135   5.138  1.00 20.00    -0.011 C 
HETATM    5  C5  UNL     1     -33.391   5.217   2.247  1.00 20.00     0.132 C 
HETATM    6  C6  UNL     1     -33.220   6.477   2.653  1.00 20.00     0.020 C 
HETATM    7  C7  UNL     1     -34.258   5.213   4.163  1.00 20.00     0.046 C 
HETATM    8  C8  UNL     1     -33.906   6.684   3.957  1.00 20.00     0.102 C 
HETATM    9  N9  UNL     1     -34.041   4.423   3.155  1.00 20.00    -0.263 NA
HETATM   10 BR10 UNL     1     -32.429   7.859   1.743  1.00 20.00    -0.053 Br
ENDROOT
TORSDOF 0
