REMARK  1 active torsions:
REMARK  status: ('A' for Active; 'I' for Inactive)
REMARK    1  A    between atoms: C1_1  and  C4_4 
ROOT
HETATM    1  C2  UNL     1     -34.480   5.331   6.215  1.00 20.00     0.038 C 
HETATM    2  C3  UNL     1     -34.367   6.808   6.543  1.00 20.00     0.169 C 
HETATM    3  C4  UNL     1     -33.418   6.443   4.450  1.00 20.00     0.190 C 
HETATM    4  C5  UNL     1     -34.430   5.316   4.690  1.00 20.00    -0.013 C 
HETATM    5  C6  UNL     1     -35.828   5.612   4.114  1.00 20.00     0.018 C 
HETATM    6  C7  UNL     1     -33.937   3.974   4.145  1.00 20.00     0.018 C 
HETATM    7  O9  UNL     1     -33.634   7.421   5.473  1.00 20.00    -0.378 OA
ENDROOT
BRANCH   3   8
HETATM    8  C1  UNL     1     -33.539   7.133   3.130  1.00 20.00     0.263 C 
HETATM    9  O8  UNL     1     -32.884   6.820   2.141  1.00 20.00    -0.304 OA
ENDBRANCH   3   8
TORSDOF 1
