REMARK  2 active torsions:
REMARK  status: ('A' for Active; 'I' for Inactive)
REMARK    1  A    between atoms: C7_7  and  O10_10 
REMARK    2  A    between atoms: C8_8  and  O10_10 
ROOT
HETATM    1  C1  UNL     1     -34.703   5.553   4.765  1.00 20.00     0.153 C 
HETATM    2  C2  UNL     1     -33.820   5.301   2.686  1.00 20.00     0.121 C 
HETATM    3  C3  UNL     1     -33.883   6.548   5.124  1.00 20.00     0.114 C 
HETATM    4  C4  UNL     1     -32.778   7.005   4.230  1.00 20.00     0.109 C 
HETATM    5  C7  UNL     1     -33.030   6.585   2.787  1.00 20.00     0.168 C 
HETATM    6  N9  UNL     1     -34.616   4.837   3.600  1.00 20.00    -0.272 NA
HETATM    7  F11 UNL     1     -34.068   7.158   6.315  1.00 20.00    -0.209 F 
ENDROOT
BRANCH   5   8
HETATM    8  O10 UNL     1     -33.813   7.575   2.134  1.00 20.00    -0.375 OA
BRANCH   8   9
HETATM    9  C8  UNL     1     -32.997   8.550   1.497  1.00 20.00     0.122 A 
HETATM   10  C5  UNL     1     -32.538   8.222   0.105  1.00 20.00     0.034 A 
HETATM   11  C6  UNL     1     -33.607   9.253   0.319  1.00 20.00     0.034 A 
ENDBRANCH   8   9
ENDBRANCH   5   8
TORSDOF 2
