REMARK  2 active torsions:
REMARK  status: ('A' for Active; 'I' for Inactive)
REMARK    1  A    between atoms: C1_1  and  C3_3 
REMARK    2  A    between atoms: C1_1  and  C5_5 
ROOT
HETATM    1  C2  UNL     1     -35.569   5.577   3.907  1.00 20.00     0.098 A 
HETATM    2  C3  UNL     1     -34.319   6.408   4.111  1.00 20.00     0.134 A 
HETATM    3  C4  UNL     1     -34.650   5.290   5.035  1.00 20.00     0.255 A 
HETATM    4  F7  UNL     1     -35.035   5.547   6.331  1.00 20.00    -0.205 F 
HETATM    5  F8  UNL     1     -33.904   4.133   5.049  1.00 20.00    -0.205 F 
ENDROOT
BRANCH   2   6
HETATM    6  C1  UNL     1     -33.206   6.266   3.167  1.00 20.00     0.146 C 
HETATM    7  O6  UNL     1     -32.949   5.171   2.669  1.00 20.00    -0.297 OA
BRANCH   6   8
HETATM    8  C5  UNL     1     -32.437   7.532   2.874  1.00 20.00     0.164 C 
HETATM    9 BR9  UNL     1     -33.189   8.430   1.331  1.00 20.00    -0.089 Br
ENDBRANCH   6   8
ENDBRANCH   2   6
TORSDOF 2
