REMARK  1 active torsions:
REMARK  status: ('A' for Active; 'I' for Inactive)
REMARK    1  A    between atoms: C1_1  and  C4_4 
ROOT
HETATM    1  C2  UNL     1     -33.353   5.425   3.017  1.00 20.00     0.026 C 
HETATM    2  C3  UNL     1     -32.427   7.262   4.346  1.00 20.00     0.026 C 
HETATM    3  C4  UNL     1     -33.698   6.429   4.127  1.00 20.00     0.088 C 
HETATM    4  C5  UNL     1     -32.232   6.054   2.244  1.00 20.00     0.069 A 
HETATM    5  C6  UNL     1     -31.666   7.177   3.057  1.00 20.00     0.069 A 
HETATM    6  C7  UNL     1     -32.305   7.453   1.741  1.00 20.00     0.252 A 
HETATM    7  F10 UNL     1     -33.505   8.121   1.653  1.00 20.00    -0.205 F 
HETATM    8  F11 UNL     1     -31.539   7.845   0.665  1.00 20.00    -0.205 F 
ENDROOT
BRANCH   3   9
HETATM    9  C1  UNL     1     -34.105   5.715   5.398  1.00 20.00     0.177 C 
HETATM   10  O8  UNL     1     -33.819   6.317   6.470  1.00 20.00    -0.648 OA
HETATM   11  O9  UNL     1     -34.681   4.605   5.221  1.00 20.00    -0.648 OA
ENDBRANCH   3   9
TORSDOF 1
