REMARK  1 active torsions:
REMARK  status: ('A' for Active; 'I' for Inactive)
REMARK    1  A    between atoms: C3_3  and  C6_6 
ROOT
HETATM    1  C1  UNL     1     -33.363   5.632   2.742  1.00 20.00     0.068 A 
HETATM    2  C2  UNL     1     -32.373   7.451   3.911  1.00 20.00     0.126 A 
HETATM    3  C3  UNL     1     -32.515   6.734   2.734  1.00 20.00    -0.023 A 
HETATM    4  C4  UNL     1     -34.032   5.285   3.911  1.00 20.00     0.212 A 
HETATM    5  C5  UNL     1     -33.821   6.067   5.035  1.00 20.00     0.175 A 
HETATM    6  N7  UNL     1     -33.006   7.145   5.065  1.00 20.00    -0.244 NA
HETATM    7  O8  UNL     1     -34.813   4.268   3.914  1.00 20.00    -0.285 OA
HETATM    8 CL9  UNL     1     -34.573   5.775   6.565  1.00 20.00    -0.058 Cl
ENDROOT
BRANCH   3   9
HETATM    9  C6  UNL     1     -31.785   7.131   1.500  1.00 20.00     0.154 C 
HETATM   10 CL10 UNL     1     -32.882   7.919   0.342  1.00 20.00    -0.126 Cl
ENDBRANCH   3   9
TORSDOF 1
