REMARK  1 active torsions:
REMARK  status: ('A' for Active; 'I' for Inactive)
REMARK    1  A    between atoms: C1_1  and  C5_5 
ROOT
HETATM    1  C3  UNL     1     -33.367   8.460  -0.146  1.00 20.00     0.009 A 
HETATM    2  C4  UNL     1     -32.942   9.680   0.614  1.00 20.00     0.009 A 
HETATM    3  C5  UNL     1     -32.479   8.320   1.061  1.00 20.00     0.009 A 
ENDROOT
BRANCH   3   4
HETATM    4  C1  UNL     1     -33.031   7.754   2.282  1.00 20.00    -0.015 C 
HETATM    5  C2  UNL     1     -33.095   6.440   2.523  1.00 20.00     0.052 C 
HETATM    6 BR6  UNL     1     -33.793   5.694   4.071  1.00 20.00    -0.064 Br
ENDBRANCH   3   4
TORSDOF 1
