REMARK  0 active torsions:
REMARK  status: ('A' for Active; 'I' for Inactive)
ROOT
HETATM    1  C1  UNL     1     -32.798   8.228   1.145  1.00 20.00     0.012 C 
HETATM    2  C2  UNL     1     -32.886   7.354   1.963  1.00 20.00    -0.110 C 
HETATM    3  C3  UNL     1     -33.891   5.153   2.521  1.00 20.00     0.045 C 
HETATM    4  C4  UNL     1     -34.272   4.526   3.844  1.00 20.00     0.169 C 
HETATM    5  C5  UNL     1     -33.674   6.742   4.241  1.00 20.00     0.184 C 
HETATM    6  C6  UNL     1     -32.993   6.288   2.961  1.00 20.00     0.090 C 
HETATM    7  O7  UNL     1     -34.331   5.593   4.799  1.00 20.00    -0.390 OA
ENDROOT
TORSDOF 0
