REMARK  0 active torsions:
REMARK  status: ('A' for Active; 'I' for Inactive)
ROOT
HETATM    1  C1  UNL     1     -34.416   6.424   2.158  1.00 20.00     0.029 C 
HETATM    2  C2  UNL     1     -32.554   6.542   3.250  1.00 20.00     0.029 C 
HETATM    3  C3  UNL     1     -33.659   4.195   3.246  1.00 20.00     0.179 A 
HETATM    4  C4  UNL     1     -34.532   5.512   4.595  1.00 20.00     0.179 A 
HETATM    5  C5  UNL     1     -32.972   6.875   1.787  1.00 20.00     0.059 C 
HETATM    6  C6  UNL     1     -33.791   5.686   3.312  1.00 20.00     0.005 A 
HETATM    7  O7  UNL     1     -34.380   4.065   4.506  1.00 20.00    -0.389 OA
HETATM    8 BR8  UNL     1     -32.776   8.721   1.254  1.00 20.00    -0.091 Br
ENDROOT
TORSDOF 0
