REMARK  2 active torsions:
REMARK  status: ('A' for Active; 'I' for Inactive)
REMARK    1  A    between atoms: C4_4  and  O9_9 
REMARK    2  A    between atoms: C7_7  and  O9_9 
ROOT
HETATM    1  C1  UNL     1     -34.305   5.059   5.182  1.00 20.00     0.155 C 
HETATM    2  C2  UNL     1     -34.389   5.753   6.553  1.00 20.00     0.084 C 
HETATM    3  C3  UNL     1     -33.592   6.920   5.927  1.00 20.00     0.047 C 
HETATM    4  C4  UNL     1     -33.267   6.075   4.669  1.00 20.00     0.191 C 
HETATM    5  O8  UNL     1     -34.851   4.092   4.696  1.00 20.00    -0.295 OA
ENDROOT
BRANCH   4   6
HETATM    6  O9  UNL     1     -33.607   6.656   3.402  1.00 20.00    -0.374 OA
BRANCH   6   7
HETATM    7  C7  UNL     1     -32.537   6.534   2.483  1.00 20.00     0.114 C 
HETATM    8  C5  UNL     1     -32.662   5.212   1.741  1.00 20.00     0.039 C 
HETATM    9  C6  UNL     1     -32.555   7.722   1.532  1.00 20.00     0.039 C 
ENDBRANCH   6   7
ENDBRANCH   4   6
TORSDOF 2
