REMARK  0 active torsions:
REMARK  status: ('A' for Active; 'I' for Inactive)
ROOT
HETATM    1  C1  UNL     1     -33.915   7.143   5.764  1.00 20.00     0.047 C 
HETATM    2  C2  UNL     1     -32.909   7.487   4.772  1.00 20.00     0.042 C 
HETATM    3  C3  UNL     1     -33.369   4.533   2.599  1.00 20.00     0.010 C 
HETATM    4  C4  UNL     1     -33.749   3.488   3.343  1.00 20.00     0.114 C 
HETATM    5  C5  UNL     1     -34.598   5.994   5.686  1.00 20.00     0.142 C 
HETATM    6  C6  UNL     1     -32.841   6.837   3.597  1.00 20.00     0.107 C 
HETATM    7  C7  UNL     1     -34.307   5.120   4.539  1.00 20.00     0.087 C 
HETATM    8  C8  UNL     1     -33.841   5.784   3.250  1.00 20.00     0.127 C 
HETATM    9  N9  UNL     1     -34.342   3.824   4.532  1.00 20.00    -0.262 NA
HETATM   10  F10 UNL     1     -35.440   5.548   6.631  1.00 20.00    -0.204 F 
HETATM   11  F11 UNL     1     -31.889   7.183   2.704  1.00 20.00    -0.210 F 
ENDROOT
TORSDOF 0
