REMARK  1 active torsions:
REMARK  status: ('A' for Active; 'I' for Inactive)
REMARK    1  A    between atoms: C6_6  and  C8_8 
ROOT
HETATM    1  C1  UNL     1     -32.759   7.380   1.353  1.00 20.00     0.099 C 
HETATM    2  C2  UNL     1     -33.582   5.315   2.373  1.00 20.00     0.031 A 
HETATM    3  C3  UNL     1     -32.918   7.160   3.784  1.00 20.00     0.046 A 
HETATM    4  C4  UNL     1     -33.735   5.115   4.776  1.00 20.00     0.032 A 
HETATM    5  C5  UNL     1     -33.088   6.612   2.512  1.00 20.00     0.046 A 
HETATM    6  C6  UNL     1     -33.905   4.566   3.504  1.00 20.00    -0.041 A 
HETATM    7  C7  UNL     1     -33.241   6.412   4.915  1.00 20.00     0.036 A 
HETATM    8  N9  UNL     1     -32.491   8.003   0.411  1.00 20.00    -0.191 NA
HETATM    9 CL10 UNL     1     -33.035   7.089   6.484  1.00 20.00    -0.084 Cl
ENDROOT
BRANCH   6  10
HETATM   10  C8  UNL     1     -34.434   3.180   3.355  1.00 20.00     0.153 C 
HETATM   11 CL11 UNL     1     -34.361   2.309   4.904  1.00 20.00    -0.126 Cl
ENDBRANCH   6  10
TORSDOF 1
