REMARK  2 active torsions:
REMARK  status: ('A' for Active; 'I' for Inactive)
REMARK    1  A    between atoms: C7_7  and  O10_10 
REMARK    2  A    between atoms: C8_8  and  O10_10 
ROOT
HETATM    1  C1  UNL     1     -34.549   4.765   4.645  1.00 20.00     0.155 C 
HETATM    2  C2  UNL     1     -34.902   4.825   6.141  1.00 20.00     0.084 C 
HETATM    3  C3  UNL     1     -34.374   6.277   6.131  1.00 20.00     0.047 C 
HETATM    4  C7  UNL     1     -34.315   6.286   4.582  1.00 20.00     0.191 C 
HETATM    5  O9  UNL     1     -34.477   3.866   3.834  1.00 20.00    -0.295 OA
ENDROOT
BRANCH   4   6
HETATM    6  O10 UNL     1     -33.077   6.647   4.000  1.00 20.00    -0.373 OA
BRANCH   6   7
HETATM    7  C8  UNL     1     -33.242   6.995   2.615  1.00 20.00     0.122 C 
HETATM    8  C5  UNL     1     -33.304   8.508   2.302  1.00 20.00     0.032 C 
HETATM    9  C4  UNL     1     -32.481   8.214   1.033  1.00 20.00     0.005 C 
HETATM   10  C6  UNL     1     -31.965   6.949   1.744  1.00 20.00     0.032 C 
ENDBRANCH   6   7
ENDBRANCH   4   6
TORSDOF 2
