REMARK  0 active torsions:
REMARK  status: ('A' for Active; 'I' for Inactive)
ROOT
HETATM    1  C1  UNL     1     -33.911   6.781   4.166  1.00 20.00     0.116 A 
HETATM    2  C2  UNL     1     -34.367   4.674   5.289  1.00 20.00     0.084 A 
HETATM    3  C3  UNL     1     -34.120   6.093   5.294  1.00 20.00     0.124 A 
HETATM    4  C4  UNL     1     -34.387   4.032   4.116  1.00 20.00     0.109 A 
HETATM    5  C5  UNL     1     -33.935   6.059   2.858  1.00 20.00     0.249 A 
HETATM    6  N6  UNL     1     -34.179   4.695   2.934  1.00 20.00    -0.314 N 
HETATM    7  O7  UNL     1     -33.746   6.668   1.809  1.00 20.00    -0.268 OA
HETATM    8  F8  UNL     1     -34.103   6.724   6.486  1.00 20.00    -0.206 F 
HETATM    9 CL9  UNL     1     -34.667   2.355   3.953  1.00 20.00    -0.064 Cl
HETATM   10  H12 UNL     1     -34.208   4.150   2.079  1.00 20.00     0.170 HD
ENDROOT
TORSDOF 0
