REMARK  2 active torsions:
REMARK  status: ('A' for Active; 'I' for Inactive)
REMARK    1  A    between atoms: C8_8  and  O11_11 
REMARK    2  A    between atoms: C9_9  and  O11_11 
ROOT
HETATM    1  C1  UNL     1     -34.208   4.272   4.053  1.00 20.00     0.092 C 
HETATM    2  C2  UNL     1     -33.971   6.249   5.199  1.00 20.00     0.027 C 
HETATM    3  C3  UNL     1     -34.454   7.080   6.137  1.00 20.00     0.040 C 
HETATM    4  C4  UNL     1     -33.509   4.757   2.812  1.00 20.00     0.079 C 
HETATM    5  C5  UNL     1     -32.946   6.729   4.207  1.00 20.00     0.090 C 
HETATM    6  C8  UNL     1     -33.334   6.264   2.811  1.00 20.00     0.132 C 
HETATM    7  N10 UNL     1     -34.411   4.948   5.141  1.00 20.00    -0.270 NA
ENDROOT
BRANCH   6   8
HETATM    8  O11 UNL     1     -32.313   6.609   1.884  1.00 20.00    -0.380 OA
BRANCH   8   9
HETATM    9  C9  UNL     1     -32.545   7.887   1.311  1.00 20.00     0.122 A 
HETATM   10  C6  UNL     1     -31.955   8.121  -0.050  1.00 20.00     0.034 A 
HETATM   11  C7  UNL     1     -33.434   7.917   0.101  1.00 20.00     0.034 A 
ENDBRANCH   8   9
ENDBRANCH   6   8
TORSDOF 2
