REMARK  0 active torsions:
REMARK  status: ('A' for Active; 'I' for Inactive)
ROOT
HETATM    1  C1  UNL     1     -34.723   4.717   5.025  1.00 20.00     0.031 C 
HETATM    2  C2  UNL     1     -35.132   5.328   6.356  1.00 20.00     0.075 C 
HETATM    3  C3  UNL     1     -33.699   6.909   4.718  1.00 20.00     0.094 C 
HETATM    4  C4  UNL     1     -34.597   5.879   4.050  1.00 20.00     0.092 C 
HETATM    5  S5  UNL     1     -34.203   6.885   6.463  1.00 20.00    -0.168 SA
HETATM    6 CL6  UNL     1     -33.914   5.346   2.498  1.00 20.00    -0.124 Cl
ENDROOT
TORSDOF 0
