REMARK  0 active torsions:
REMARK  status: ('A' for Active; 'I' for Inactive)
ROOT
HETATM    1  C1  UNL     1     -33.024   8.146   1.760  1.00 20.00    -0.025 C 
HETATM    2  C2  UNL     1     -33.573   8.795   2.805  1.00 20.00    -0.025 C 
HETATM    3  C3  UNL     1     -33.814   4.745   2.686  1.00 20.00    -0.024 C 
HETATM    4  C4  UNL     1     -34.579   4.516   3.778  1.00 20.00    -0.025 C 
HETATM    5  C5  UNL     1     -31.745   7.752   3.630  1.00 20.00     0.018 C 
HETATM    6  C6  UNL     1     -32.165   7.031   2.308  1.00 20.00     0.016 C 
HETATM    7  C7  UNL     1     -33.191   8.030   4.071  1.00 20.00     0.014 C 
HETATM    8  C8  UNL     1     -32.929   5.891   3.001  1.00 20.00     0.021 C 
HETATM    9  C9  UNL     1     -34.446   5.627   4.832  1.00 20.00     0.009 C 
HETATM   10  C10 UNL     1     -33.928   6.689   3.881  1.00 20.00     0.009 C 
HETATM   11  C11 UNL     1     -33.549   5.284   6.009  1.00 20.00     0.014 C 
ENDROOT
TORSDOF 0
