REMARK  0 active torsions:
REMARK  status: ('A' for Active; 'I' for Inactive)
ROOT
HETATM    1  C1  UNL     1     -34.837   4.794   5.476  1.00 20.00     0.147 A 
HETATM    2  C2  UNL     1     -34.154   5.117   4.290  1.00 20.00    -0.015 A 
HETATM    3  C3  UNL     1     -33.842   6.448   4.428  1.00 20.00     0.036 A 
HETATM    4  C4  UNL     1     -33.808   4.325   3.087  1.00 20.00     0.043 C 
HETATM    5  C5  UNL     1     -33.095   7.297   3.465  1.00 20.00     0.068 C 
HETATM    6  C6  UNL     1     -32.750   5.061   2.236  1.00 20.00     0.014 C 
HETATM    7  C7  UNL     1     -33.012   6.594   2.072  1.00 20.00    -0.042 C 
HETATM    8  C8  UNL     1     -31.851   7.213   1.273  1.00 20.00     0.015 C 
HETATM    9  C9  UNL     1     -34.315   6.831   1.282  1.00 20.00     0.015 C 
HETATM   10  N10 UNL     1     -34.945   5.839   6.306  1.00 20.00    -0.186 NA
HETATM   11  N11 UNL     1     -34.327   6.834   5.640  1.00 20.00    -0.282 N 
HETATM   12  H25 UNL     1     -34.279   7.747   6.074  1.00 20.00     0.189 HD
ENDROOT
TORSDOF 0
