REMARK  0 active torsions:
REMARK  status: ('A' for Active; 'I' for Inactive)
ROOT
HETATM    1  C1  UNL     1     -32.774   7.728   2.358  1.00 20.00     0.104 C 
HETATM    2  C2  UNL     1     -34.261   4.981   4.378  1.00 20.00     0.107 A 
HETATM    3  C3  UNL     1     -33.559   7.601   4.671  1.00 20.00     0.145 A 
HETATM    4  C4  UNL     1     -33.345   6.998   3.442  1.00 20.00     0.100 A 
HETATM    5  C5  UNL     1     -33.706   5.663   3.301  1.00 20.00     0.142 A 
HETATM    6  C6  UNL     1     -34.434   5.674   5.565  1.00 20.00     0.212 A 
HETATM    7  N7  UNL     1     -32.309   8.322   1.475  1.00 20.00    -0.191 NA
HETATM    8  N8  UNL     1     -34.096   6.971   5.740  1.00 20.00    -0.231 NA
HETATM    9  F9  UNL     1     -33.524   5.022   2.137  1.00 20.00    -0.204 F 
HETATM   10  F10 UNL     1     -34.969   5.029   6.612  1.00 20.00    -0.184 F 
ENDROOT
TORSDOF 0
