REMARK  0 active torsions:
REMARK  status: ('A' for Active; 'I' for Inactive)
ROOT
HETATM    1  C1  UNL     1     -33.804   4.814   6.117  1.00 20.00    -0.025 C 
HETATM    2  C2  UNL     1     -33.664   6.153   6.125  1.00 20.00    -0.025 C 
HETATM    3  C3  UNL     1     -33.359   4.188   2.600  1.00 20.00    -0.024 C 
HETATM    4  C4  UNL     1     -33.043   5.213   1.774  1.00 20.00    -0.025 C 
HETATM    5  C5  UNL     1     -35.662   5.756   5.142  1.00 20.00     0.018 C 
HETATM    6  C6  UNL     1     -34.798   4.459   5.036  1.00 20.00     0.016 C 
HETATM    7  C7  UNL     1     -34.468   6.704   4.948  1.00 20.00     0.014 C 
HETATM    8  C8  UNL     1     -34.320   4.718   3.598  1.00 20.00     0.021 C 
HETATM    9  C9  UNL     1     -33.618   6.548   2.278  1.00 20.00     0.009 C 
HETATM   10  C10 UNL     1     -33.706   6.136   3.734  1.00 20.00     0.009 C 
HETATM   11  C11 UNL     1     -32.697   7.735   2.054  1.00 20.00     0.014 C 
ENDROOT
TORSDOF 0
