REMARK  1 active torsions:
REMARK  status: ('A' for Active; 'I' for Inactive)
REMARK    1  A    between atoms: C4_4  and  C11_11 
ROOT
HETATM    1  C1  UNL     1     -33.217   4.271   2.161  1.00 20.00     0.003 A 
HETATM    2  C2  UNL     1     -32.877   5.606   1.893  1.00 20.00     0.008 A 
HETATM    3  C3  UNL     1     -33.809   3.915   3.376  1.00 20.00     0.029 A 
HETATM    4  C4  UNL     1     -33.117   6.604   2.839  1.00 20.00    -0.045 A 
HETATM    5  C5  UNL     1     -33.712   6.237   4.033  1.00 20.00    -0.024 A 
HETATM    6  C6  UNL     1     -34.071   4.913   4.298  1.00 20.00     0.035 A 
HETATM    7  C7  UNL     1     -34.025   7.081   5.226  1.00 20.00     0.061 C 
HETATM    8  C10 UNL     1     -34.859   6.105   6.083  1.00 20.00     0.124 C 
HETATM    9  N12 UNL     1     -34.599   4.762   5.579  1.00 20.00    -0.389 N 
HETATM   10  H25 UNL     1     -35.151   3.956   5.838  1.00 20.00     0.159 HD
ENDROOT
BRANCH   4  11
HETATM   11  C11 UNL     1     -32.731   8.014   2.563  1.00 20.00     0.019 A 
HETATM   12  C8  UNL     1     -32.833   8.540   1.153  1.00 20.00     0.010 A 
HETATM   13  C9  UNL     1     -31.486   8.292   1.759  1.00 20.00     0.010 A 
ENDBRANCH   4  11
TORSDOF 1
