REMARK  0 active torsions:
REMARK  status: ('A' for Active; 'I' for Inactive)
ROOT
HETATM    1  C1  UNL     1     -34.058   4.748   3.940  1.00 20.00     0.008 C 
HETATM    2  C2  UNL     1     -33.659   4.734   2.659  1.00 20.00     0.028 C 
HETATM    3  C3  UNL     1     -33.103   6.932   4.446  1.00 20.00    -0.005 C 
HETATM    4  C4  UNL     1     -32.201   8.052   2.332  1.00 20.00     0.015 C 
HETATM    5  C5  UNL     1     -33.920   5.920   4.803  1.00 20.00    -0.065 C 
HETATM    6  C6  UNL     1     -32.639   7.751   1.102  1.00 20.00     0.028 C 
HETATM    7  C7  UNL     1     -33.052   5.994   2.191  1.00 20.00     0.046 C 
HETATM    8  C8  UNL     1     -32.293   6.844   3.195  1.00 20.00     0.085 C 
HETATM    9  C9  UNL     1     -34.708   5.921   6.076  1.00 20.00     0.048 C 
HETATM   10  C10 UNL     1     -32.660   8.657  -0.076  1.00 20.00     0.070 C 
HETATM   11  N11 UNL     1     -33.152   6.480   0.992  1.00 20.00    -0.258 NA
ENDROOT
TORSDOF 0
