REMARK  0 active torsions:
REMARK  status: ('A' for Active; 'I' for Inactive)
ROOT
HETATM    1  C1  UNL     1     -34.530   5.853   5.046  1.00 20.00     0.032 A 
HETATM    2  C2  UNL     1     -33.436   6.926   2.925  1.00 20.00     0.040 A 
HETATM    3  C3  UNL     1     -32.854   5.205   1.366  1.00 20.00     0.142 A 
HETATM    4  C4  UNL     1     -34.780   4.527   5.329  1.00 20.00     0.093 A 
HETATM    5  C5  UNL     1     -33.921   5.910   3.764  1.00 20.00     0.013 A 
HETATM    6  C6  UNL     1     -32.891   6.553   1.698  1.00 20.00     0.052 A 
HETATM    7  C7  UNL     1     -33.821   4.600   3.306  1.00 20.00     0.139 A 
HETATM    8  C8  UNL     1     -34.436   2.336   4.186  1.00 20.00     0.157 C 
HETATM    9  N9  UNL     1     -33.306   4.185   2.133  1.00 20.00    -0.241 NA
HETATM   10  N10 UNL     1     -34.346   3.776   4.267  1.00 20.00    -0.345 N 
HETATM   11 CL11 UNL     1     -32.280   7.739   0.618  1.00 20.00    -0.083 Cl
ENDROOT
TORSDOF 0
