REMARK  0 active torsions:
REMARK  status: ('A' for Active; 'I' for Inactive)
ROOT
HETATM    1  C1  UNL     1     -34.844   5.474   6.231  1.00 20.00     0.002 C 
HETATM    2  C2  UNL     1     -34.926   4.937   5.004  1.00 20.00     0.028 C 
HETATM    3  C3  UNL     1     -33.903   6.531   6.562  1.00 20.00    -0.003 C 
HETATM    4  C4  UNL     1     -33.291   7.244   5.601  1.00 20.00    -0.012 C 
HETATM    5  C5  UNL     1     -32.492   6.949   3.188  1.00 20.00     0.007 C 
HETATM    6  C6  UNL     1     -32.504   5.769   2.560  1.00 20.00     0.114 C 
HETATM    7  C7  UNL     1     -34.002   5.524   4.014  1.00 20.00     0.045 C 
HETATM    8  C8  UNL     1     -33.613   6.989   4.166  1.00 20.00     0.084 C 
HETATM    9  N9  UNL     1     -33.433   4.883   3.039  1.00 20.00    -0.265 NA
ENDROOT
TORSDOF 0
