REMARK  1 active torsions:
REMARK  status: ('A' for Active; 'I' for Inactive)
REMARK    1  A    between atoms: C4_4  and  C8_8 
ROOT
HETATM    1  C1  UNL     1     -34.357   5.252   4.450  1.00 20.00     0.079 A 
HETATM    2  C2  UNL     1     -33.459   7.561   4.031  1.00 20.00     0.088 A 
HETATM    3  C3  UNL     1     -33.993   4.984   3.194  1.00 20.00     0.146 A 
HETATM    4  C4  UNL     1     -33.137   7.171   2.785  1.00 20.00     0.064 A 
HETATM    5  C5  UNL     1     -34.102   6.610   4.964  1.00 20.00     0.176 A 
HETATM    6  O10 UNL     1     -34.407   6.934   6.106  1.00 20.00    -0.288 OA
HETATM    7  O11 UNL     1     -33.397   5.876   2.337  1.00 20.00    -0.326 OA
ENDROOT
BRANCH   4   8
HETATM    8  C8  UNL     1     -32.493   8.081   1.810  1.00 20.00     0.006 A 
HETATM    9  C6  UNL     1     -33.257   9.331   1.446  1.00 20.00     0.017 A 
HETATM   10  C7  UNL     1     -33.157   8.207   0.461  1.00 20.00     0.017 A 
HETATM   11  C9  UNL     1     -30.996   8.154   1.878  1.00 20.00     0.022 C 
ENDBRANCH   4   8
TORSDOF 1
