REMARK  2 active torsions:
REMARK  status: ('A' for Active; 'I' for Inactive)
REMARK    1  A    between atoms: C5_5  and  C6_6 
REMARK    2  A    between atoms: C7_7  and  O8_8 
ROOT
HETATM    1  C3  UNL     1     -35.400   5.566   5.539  1.00 20.00     0.010 C 
HETATM    2  C4  UNL     1     -34.416   6.292   6.474  1.00 20.00     0.032 C 
HETATM    3  C6  UNL     1     -34.605   6.155   4.344  1.00 20.00     0.018 C 
HETATM    4  C7  UNL     1     -33.391   6.260   5.317  1.00 20.00     0.122 C 
ENDROOT
BRANCH   3   5
HETATM    5  C5  UNL     1     -34.463   5.341   3.079  1.00 20.00    -0.008 A 
HETATM    6  C1  UNL     1     -33.294   5.473   2.142  1.00 20.00     0.005 A 
HETATM    7  C2  UNL     1     -33.483   4.210   2.935  1.00 20.00     0.005 A 
ENDBRANCH   3   5
BRANCH   4   8
HETATM    8  O8  UNL     1     -32.552   7.419   5.168  1.00 20.00    -0.395 OA
HETATM    9  H20 UNL     1     -32.062   7.498   5.997  1.00 20.00     0.210 HD
ENDBRANCH   4   8
TORSDOF 2
