REMARK  0 active torsions:
REMARK  status: ('A' for Active; 'I' for Inactive)
ROOT
HETATM    1  C1  UNL     1     -33.954   6.295   5.685  1.00 20.00     0.002 C 
HETATM    2  C2  UNL     1     -33.111   7.198   5.160  1.00 20.00     0.030 C 
HETATM    3  C3  UNL     1     -34.654   5.312   4.873  1.00 20.00    -0.001 C 
HETATM    4  C4  UNL     1     -34.270   5.050   3.612  1.00 20.00     0.006 C 
HETATM    5  C5  UNL     1     -32.936   7.087   3.705  1.00 20.00     0.066 C 
HETATM    6  C6  UNL     1     -32.888   7.407   1.643  1.00 20.00     0.219 C 
HETATM    7  C7  UNL     1     -33.078   5.742   3.039  1.00 20.00     0.186 C 
HETATM    8  N8  UNL     1     -32.714   8.027   2.855  1.00 20.00    -0.221 NA
HETATM    9  N9  UNL     1     -33.186   6.140   1.624  1.00 20.00    -0.245 NA
HETATM   10 CL10 UNL     1     -32.783   8.320   0.215  1.00 20.00    -0.041 Cl
ENDROOT
TORSDOF 0
