REMARK  2 active torsions:
REMARK  status: ('A' for Active; 'I' for Inactive)
REMARK    1  A    between atoms: C6_6  and  C7_7 
REMARK    2  A    between atoms: C7_7  and  N8_8 
ROOT
HETATM    1  C1  UNL     1     -32.773   8.344   1.339  1.00 20.00     0.332 C 
HETATM    2  N8  UNL     1     -32.384   7.371   1.870  1.00 20.00    -0.247 NA
HETATM    3  O9  UNL     1     -33.163   9.318   0.806  1.00 20.00    -0.260 OA
ENDROOT
BRANCH   2   4
HETATM    4  C7  UNL     1     -32.620   7.331   3.311  1.00 20.00     0.161 C 
BRANCH   4   5
HETATM    5  C6  UNL     1     -33.978   6.694   3.568  1.00 20.00     0.028 C 
HETATM    6  C3  UNL     1     -34.322   6.610   5.023  1.00 20.00    -0.024 C 
HETATM    7  C2  UNL     1     -34.828   5.416   5.345  1.00 20.00    -0.030 C 
HETATM    8  C4  UNL     1     -34.898   4.506   4.165  1.00 20.00     0.027 C 
HETATM    9  C5  UNL     1     -34.022   5.221   3.136  1.00 20.00     0.014 C 
ENDBRANCH   4   5
ENDBRANCH   2   4
TORSDOF 2
