REMARK  0 active torsions:
REMARK  status: ('A' for Active; 'I' for Inactive)
ROOT
HETATM    1  C1  UNL     1     -34.046   4.299   3.243  1.00 20.00     0.032 C 
HETATM    2  C2  UNL     1     -33.616   5.138   2.295  1.00 20.00     0.028 C 
HETATM    3  C3  UNL     1     -34.706   6.604   5.966  1.00 20.00     0.026 C 
HETATM    4  C4  UNL     1     -34.433   5.442   6.567  1.00 20.00     0.115 C 
HETATM    5  C5  UNL     1     -34.329   4.940   4.531  1.00 20.00     0.062 C 
HETATM    6  C6  UNL     1     -33.362   6.565   2.670  1.00 20.00     0.026 C 
HETATM    7  C7  UNL     1     -34.779   6.380   4.499  1.00 20.00     0.184 C 
HETATM    8  C8  UNL     1     -32.444   7.335   1.756  1.00 20.00     0.070 C 
HETATM    9  N9  UNL     1     -34.212   4.401   5.704  1.00 20.00    -0.263 NA
HETATM   10  N10 UNL     1     -33.844   7.168   3.710  1.00 20.00    -0.279 NA
ENDROOT
TORSDOF 0
