REMARK  0 active torsions:
REMARK  status: ('A' for Active; 'I' for Inactive)
ROOT
HETATM    1  C1  UNL     1     -34.631   4.605   5.941  1.00 20.00    -0.025 C 
HETATM    2  C2  UNL     1     -33.946   5.754   6.051  1.00 20.00    -0.025 C 
HETATM    3  C3  UNL     1     -34.069   4.097   2.181  1.00 20.00    -0.024 C 
HETATM    4  C4  UNL     1     -33.463   5.063   1.486  1.00 20.00    -0.025 C 
HETATM    5  C5  UNL     1     -35.329   5.977   4.226  1.00 20.00     0.018 C 
HETATM    6  C6  UNL     1     -35.076   4.489   4.501  1.00 20.00     0.016 C 
HETATM    7  C7  UNL     1     -33.928   6.401   4.680  1.00 20.00     0.014 C 
HETATM    8  C8  UNL     1     -33.814   4.203   3.649  1.00 20.00     0.021 C 
HETATM    9  C9  UNL     1     -32.674   5.999   2.352  1.00 20.00     0.009 C 
HETATM   10  C10 UNL     1     -32.989   5.535   3.793  1.00 20.00     0.009 C 
HETATM   11  C11 UNL     1     -32.955   7.465   2.054  1.00 20.00     0.014 C 
ENDROOT
TORSDOF 0
