REMARK  1 active torsions:
REMARK  status: ('A' for Active; 'I' for Inactive)
REMARK    1  A    between atoms: C3_3  and  C6_6 
ROOT
HETATM    1  C1  UNL     1     -34.279   6.843   5.098  1.00 20.00    -0.025 C 
HETATM    2  C2  UNL     1     -33.654   7.084   3.936  1.00 20.00    -0.026 C 
HETATM    3  C4  UNL     1     -35.445   5.896   5.255  1.00 20.00     0.015 C 
HETATM    4  C5  UNL     1     -34.024   6.417   2.633  1.00 20.00     0.008 C 
HETATM    5  C6  UNL     1     -35.965   5.404   3.882  1.00 20.00     0.066 C 
HETATM    6  C7  UNL     1     -34.851   5.117   2.845  1.00 20.00     0.000 C 
HETATM    7  C9  UNL     1     -35.083   4.792   6.256  1.00 20.00     0.015 C 
HETATM    8  C10 UNL     1     -32.784   6.201   1.761  1.00 20.00     0.014 C 
HETATM    9  C11 UNL     1     -33.981   3.901   3.196  1.00 20.00     0.011 C 
ENDROOT
BRANCH   5  10
HETATM   10  C3  UNL     1     -36.957   4.280   3.990  1.00 20.00     0.128 C 
HETATM   11  C8  UNL     1     -37.616   3.835   2.713  1.00 20.00     0.091 C 
HETATM   12  O12 UNL     1     -37.215   3.750   5.069  1.00 20.00    -0.298 OA
ENDBRANCH   5  10
TORSDOF 1
