REMARK  0 active torsions:
REMARK  status: ('A' for Active; 'I' for Inactive)
ROOT
HETATM    1  C1  UNL     1     -34.769   5.240   5.513  1.00 20.00     0.002 C 
HETATM    2  C2  UNL     1     -34.258   4.904   4.318  1.00 20.00     0.028 C 
HETATM    3  C3  UNL     1     -34.611   6.565   6.087  1.00 20.00    -0.003 C 
HETATM    4  C4  UNL     1     -33.691   7.423   5.615  1.00 20.00    -0.012 C 
HETATM    5  C5  UNL     1     -32.501   7.965   3.416  1.00 20.00     0.027 C 
HETATM    6  C6  UNL     1     -32.841   7.406   2.249  1.00 20.00     0.100 C 
HETATM    7  C7  UNL     1     -33.502   5.981   3.649  1.00 20.00     0.047 C 
HETATM    8  C8  UNL     1     -32.774   7.001   4.515  1.00 20.00     0.085 C 
HETATM    9  N9  UNL     1     -33.443   6.179   2.368  1.00 20.00    -0.245 NA
HETATM   10 BR10 UNL     1     -32.632   8.168   0.582  1.00 20.00    -0.029 Br
ENDROOT
TORSDOF 0
