REMARK  1 active torsions:
REMARK  status: ('A' for Active; 'I' for Inactive)
REMARK    1  A    between atoms: C3_3  and  C7_7 
ROOT
HETATM    1  C1  UNL     1     -32.910   6.147   2.115  1.00 20.00     0.024 A 
HETATM    2  C2  UNL     1     -33.656   7.812   3.641  1.00 20.00     0.131 A 
HETATM    3  C3  UNL     1     -33.023   7.491   2.450  1.00 20.00     0.024 A 
HETATM    4  C4  UNL     1     -33.426   5.177   2.968  1.00 20.00    -0.021 A 
HETATM    5  C5  UNL     1     -34.040   5.601   4.135  1.00 20.00     0.131 A 
HETATM    6  C6  UNL     1     -33.301   3.737   2.604  1.00 20.00     0.051 C 
HETATM    7  N8  UNL     1     -34.169   6.898   4.495  1.00 20.00    -0.248 NA
HETATM    8 CL11 UNL     1     -34.715   4.499   5.270  1.00 20.00    -0.062 Cl
ENDROOT
BRANCH   3   9
HETATM    9  C7  UNL     1     -32.481   8.552   1.560  1.00 20.00     0.388 C 
HETATM   10  F9  UNL     1     -33.219   9.691   1.653  1.00 20.00    -0.209 F 
HETATM   11  F10 UNL     1     -32.534   8.168   0.256  1.00 20.00    -0.209 F 
ENDBRANCH   3   9
TORSDOF 1
