REMARK  0 active torsions:
REMARK  status: ('A' for Active; 'I' for Inactive)
ROOT
HETATM    1  C1  UNL     1     -34.480   4.791   6.268  1.00 20.00     0.011 A 
HETATM    2  C2  UNL     1     -33.913   6.122   5.766  1.00 20.00     0.011 A 
HETATM    3  C3  UNL     1     -35.522   5.170   3.803  1.00 20.00     0.027 A 
HETATM    4  C4  UNL     1     -34.157   4.495   3.596  1.00 20.00     0.067 A 
HETATM    5  C5  UNL     1     -34.506   5.152   4.852  1.00 20.00    -0.026 A 
HETATM    6 BR6  UNL     1     -32.926   5.341   2.412  1.00 20.00    -0.090 Br
ENDROOT
TORSDOF 0
