REMARK  0 active torsions:
REMARK  status: ('A' for Active; 'I' for Inactive)
ROOT
HETATM    1  C1  UNL     1     -33.208   4.990   3.034  1.00 20.00     0.108 C 
HETATM    2  C2  UNL     1     -34.568   5.041   3.755  1.00 20.00     0.241 C 
HETATM    3  C3  UNL     1     -34.210   6.484   4.190  1.00 20.00     0.321 C 
HETATM    4  C4  UNL     1     -33.247   6.542   2.956  1.00 20.00     0.249 C 
HETATM    5  O5  UNL     1     -34.666   4.141   4.824  1.00 20.00    -0.229 OA
HETATM    6  F6  UNL     1     -33.588   6.627   5.386  1.00 20.00    -0.198 F 
HETATM    7  F7  UNL     1     -35.235   7.366   4.183  1.00 20.00    -0.198 F 
HETATM    8  F8  UNL     1     -32.056   7.138   3.219  1.00 20.00    -0.219 F 
HETATM    9 CL9  UNL     1     -33.926   7.238   1.453  1.00 20.00    -0.076 Cl
ENDROOT
TORSDOF 0
