REMARK  1 active torsions:
REMARK  status: ('A' for Active; 'I' for Inactive)
REMARK    1  A    between atoms: C6_6  and  C8_8 
ROOT
HETATM    1  C1  UNL     1     -32.733   7.287   0.736  1.00 20.00     0.008 C 
HETATM    2  C2  UNL     1     -33.017   5.989   0.925  1.00 20.00     0.028 C 
HETATM    3  C3  UNL     1     -33.078   7.930   3.061  1.00 20.00    -0.005 C 
HETATM    4  C4  UNL     1     -34.705   4.962   3.863  1.00 20.00     0.128 C 
HETATM    5  C5  UNL     1     -32.917   8.299   1.774  1.00 20.00    -0.065 C 
HETATM    6  C6  UNL     1     -34.016   5.964   4.414  1.00 20.00     0.011 C 
HETATM    7  C7  UNL     1     -33.516   5.658   2.273  1.00 20.00     0.046 C 
HETATM    8  C9  UNL     1     -33.017   6.489   3.450  1.00 20.00     0.098 C 
HETATM    9  C10 UNL     1     -32.905   9.731   1.334  1.00 20.00     0.048 C 
HETATM   10  N11 UNL     1     -34.398   4.744   2.545  1.00 20.00    -0.264 NA
ENDROOT
BRANCH   6  11
HETATM   11  C8  UNL     1     -34.172   6.396   5.790  1.00 20.00     0.268 C 
HETATM   12  O12 UNL     1     -34.963   5.870   6.576  1.00 20.00    -0.302 OA
ENDBRANCH   6  11
TORSDOF 1
