REMARK  0 active torsions:
REMARK  status: ('A' for Active; 'I' for Inactive)
ROOT
HETATM    1  C1  UNL     1     -34.784   5.780   5.581  1.00 20.00     0.002 C 
HETATM    2  C2  UNL     1     -34.061   6.898   5.406  1.00 20.00     0.028 C 
HETATM    3  C3  UNL     1     -35.015   4.822   4.513  1.00 20.00    -0.003 C 
HETATM    4  C4  UNL     1     -34.270   4.832   3.395  1.00 20.00    -0.012 C 
HETATM    5  C5  UNL     1     -32.971   6.497   1.950  1.00 20.00     0.032 C 
HETATM    6  C6  UNL     1     -33.020   7.818   2.151  1.00 20.00     0.123 C 
HETATM    7  C7  UNL     1     -33.500   7.060   4.050  1.00 20.00     0.047 C 
HETATM    8  C8  UNL     1     -33.148   5.807   3.257  1.00 20.00     0.086 C 
HETATM    9  N9  UNL     1     -33.327   8.189   3.434  1.00 20.00    -0.241 NA
HETATM   10 CL10 UNL     1     -32.800   8.986   0.928  1.00 20.00    -0.063 Cl
ENDROOT
TORSDOF 0
