REMARK  1 active torsions:
REMARK  status: ('A' for Active; 'I' for Inactive)
REMARK    1  A    between atoms: C6_6  and  C10_10 
ROOT
HETATM    1  C1  UNL     1     -32.462   8.022   1.207  1.00 20.00     0.017 C 
HETATM    2  C2  UNL     1     -32.881   7.082   1.825  1.00 20.00    -0.083 C 
HETATM    3  C3  UNL     1     -34.384   6.151   3.432  1.00 20.00    -0.002 C 
HETATM    4  C4  UNL     1     -33.378   5.965   2.559  1.00 20.00    -0.009 C 
HETATM    5  C7  UNL     1     -32.776   4.605   2.313  1.00 20.00     0.048 C 
HETATM    6  C8  UNL     1     -33.641   3.458   2.838  1.00 20.00     0.006 C 
HETATM    7  C9  UNL     1     -34.148   3.759   4.244  1.00 20.00     0.012 C 
HETATM    8  C10 UNL     1     -34.986   5.047   4.266  1.00 20.00     0.031 C 
ENDROOT
BRANCH   8   9
HETATM    9  C6  UNL     1     -35.201   5.484   5.684  1.00 20.00    -0.028 C 
HETATM   10  C5  UNL     1     -34.424   6.365   6.322  1.00 20.00     0.007 C 
ENDBRANCH   8   9
TORSDOF 1
