REMARK  0 active torsions:
REMARK  status: ('A' for Active; 'I' for Inactive)
ROOT
HETATM    1  C1  UNL     1     -31.579   7.906   3.145  1.00 20.00     0.013 C 
HETATM    2  C2  UNL     1     -32.571   7.304   3.450  1.00 20.00    -0.103 C 
HETATM    3  C3  UNL     1     -34.847   4.491   5.565  1.00 20.00    -0.004 C 
HETATM    4  C4  UNL     1     -34.125   4.137   4.370  1.00 20.00     0.004 C 
HETATM    5  C5  UNL     1     -34.829   5.743   6.038  1.00 20.00    -0.025 C 
HETATM    6  C6  UNL     1     -33.623   5.064   3.530  1.00 20.00    -0.063 C 
HETATM    7  C7  UNL     1     -34.071   6.835   5.339  1.00 20.00     0.054 C 
HETATM    8  C8  UNL     1     -33.796   6.560   3.826  1.00 20.00     0.045 C 
HETATM    9  C9  UNL     1     -32.931   4.638   2.261  1.00 20.00     0.045 C 
HETATM   10  C10 UNL     1     -34.975   7.096   2.988  1.00 20.00     0.034 C 
ENDROOT
TORSDOF 0
