REMARK  1 active torsions:
REMARK  status: ('A' for Active; 'I' for Inactive)
REMARK    1  A    between atoms: C1_1  and  C6_6 
ROOT
HETATM    1  C1  UNL     1     -33.299   6.823   2.795  1.00 20.00    -0.029 A 
HETATM    2  C2  UNL     1     -33.714   5.558   2.982  1.00 20.00     0.168 A 
HETATM    3  C3  UNL     1     -34.039   7.357   3.995  1.00 20.00     0.124 A 
HETATM    4  C7  UNL     1     -34.534   5.907   4.218  1.00 20.00     0.300 A 
HETATM    5  F8  UNL     1     -33.497   4.410   2.326  1.00 20.00    -0.204 F 
HETATM    6  F9  UNL     1     -35.879   5.752   4.147  1.00 20.00    -0.198 F 
HETATM    7  F10 UNL     1     -34.160   5.358   5.399  1.00 20.00    -0.198 F 
ENDROOT
BRANCH   1   8
HETATM    8  C6  UNL     1     -32.391   7.451   1.731  1.00 20.00     0.018 A 
HETATM    9  C4  UNL     1     -32.876   7.898   0.351  1.00 20.00     0.010 A 
HETATM   10  C5  UNL     1     -32.425   8.929   1.341  1.00 20.00     0.010 A 
ENDBRANCH   1   8
TORSDOF 1
