REMARK  1 active torsions:
REMARK  status: ('A' for Active; 'I' for Inactive)
REMARK    1  A    between atoms: C2_2  and  C12_12 
ROOT
HETATM    1  C1  UNL     1     -32.768   5.963   1.195  1.00 20.00    -0.023 C 
HETATM    2  C2  UNL     1     -33.334   7.182   1.294  1.00 20.00    -0.075 C 
HETATM    3  C3  UNL     1     -32.866   4.968   2.332  1.00 20.00     0.033 C 
HETATM    4  C4  UNL     1     -34.994   6.224   2.932  1.00 20.00     0.015 C 
HETATM    5  C5  UNL     1     -34.080   7.453   2.576  1.00 20.00     0.023 C 
HETATM    6  C6  UNL     1     -33.675   5.593   3.489  1.00 20.00    -0.002 C 
HETATM    7  C7  UNL     1     -33.261   7.077   3.892  1.00 20.00    -0.036 C 
HETATM    8  C8  UNL     1     -31.763   7.405   3.929  1.00 20.00     0.016 C 
HETATM    9  C9  UNL     1     -33.877   7.594   5.207  1.00 20.00     0.016 C 
ENDROOT
BRANCH   2  10
HETATM   10  C12 UNL     1     -33.280   8.241   0.247  1.00 20.00     0.006 C 
HETATM   11  C10 UNL     1     -32.637   9.512   0.800  1.00 20.00     0.014 C 
HETATM   12  C11 UNL     1     -32.528   7.753  -0.991  1.00 20.00     0.014 C 
ENDBRANCH   2  10
TORSDOF 1
