REMARK  0 active torsions:
REMARK  status: ('A' for Active; 'I' for Inactive)
ROOT
HETATM    1  C1  UNL     1     -32.647   7.591   4.349  1.00 20.00     0.013 C 
HETATM    2  C2  UNL     1     -33.444   6.740   4.637  1.00 20.00    -0.106 C 
HETATM    3  C3  UNL     1     -35.629   5.608   4.106  1.00 20.00     0.041 A 
HETATM    4  C4  UNL     1     -34.591   4.521   4.076  1.00 20.00     0.079 A 
HETATM    5  C5  UNL     1     -34.401   5.720   4.983  1.00 20.00     0.033 A 
HETATM    6  C6  UNL     1     -34.576   5.506   6.463  1.00 20.00     0.030 C 
HETATM    7 BR7  UNL     1     -33.565   4.308   2.477  1.00 20.00    -0.089 Br
ENDROOT
TORSDOF 0
