REMARK  0 active torsions:
REMARK  status: ('A' for Active; 'I' for Inactive)
ROOT
HETATM    1  C1  UNL     1     -32.918   7.610   1.645  1.00 20.00     0.179 C 
HETATM    2  C2  UNL     1     -33.014   7.216   5.340  1.00 20.00    -0.010 C 
HETATM    3  C3  UNL     1     -34.167   6.538   5.432  1.00 20.00    -0.023 C 
HETATM    4  C4  UNL     1     -32.283   7.431   4.050  1.00 20.00     0.161 C 
HETATM    5  C5  UNL     1     -33.845   5.778   3.058  1.00 20.00     0.143 C 
HETATM    6  C6  UNL     1     -34.818   5.888   4.241  1.00 20.00     0.022 C 
HETATM    7  C7  UNL     1     -35.359   4.505   4.604  1.00 20.00     0.016 C 
HETATM    8  N8  UNL     1     -32.728   8.063   0.595  1.00 20.00    -0.172 NA
HETATM    9  N9  UNL     1     -33.138   7.083   2.868  1.00 20.00    -0.316 N 
ENDROOT
TORSDOF 0
