REMARK  0 active torsions:
REMARK  status: ('A' for Active; 'I' for Inactive)
ROOT
HETATM    1  C1  UNL     1     -32.687   8.662   0.376  1.00 20.00     0.012 C 
HETATM    2  C2  UNL     1     -33.917   6.972   6.349  1.00 20.00     0.012 C 
HETATM    3  C3  UNL     1     -32.847   7.938   1.320  1.00 20.00    -0.113 C 
HETATM    4  C4  UNL     1     -34.322   6.548   5.302  1.00 20.00    -0.113 C 
HETATM    5  C5  UNL     1     -32.763   4.681   3.325  1.00 20.00     0.002 C 
HETATM    6  C6  UNL     1     -32.518   5.645   2.168  1.00 20.00     0.017 C 
HETATM    7  C7  UNL     1     -34.239   4.638   3.722  1.00 20.00     0.017 C 
HETATM    8  C8  UNL     1     -34.529   7.008   2.872  1.00 20.00     0.034 C 
HETATM    9  C9  UNL     1     -33.043   7.051   2.480  1.00 20.00     0.065 C 
HETATM   10  C10 UNL     1     -34.821   6.026   4.016  1.00 20.00     0.065 C 
ENDROOT
TORSDOF 0
