REMARK  1 active torsions:
REMARK  status: ('A' for Active; 'I' for Inactive)
REMARK    1  A    between atoms: C3_3  and  C8_8 
ROOT
HETATM    1  C1  UNL     1     -33.339   3.795   4.460  1.00 20.00    -0.025 C 
HETATM    2  C2  UNL     1     -33.645   4.164   3.208  1.00 20.00    -0.024 C 
HETATM    3  C4  UNL     1     -35.482   4.633   4.509  1.00 20.00     0.018 C 
HETATM    4  C5  UNL     1     -34.230   4.585   5.389  1.00 20.00     0.013 C 
HETATM    5  C6  UNL     1     -34.734   5.213   3.301  1.00 20.00     0.024 C 
HETATM    6  C7  UNL     1     -33.748   6.067   5.364  1.00 20.00     0.004 C 
HETATM    7  C8  UNL     1     -34.146   6.528   3.904  1.00 20.00     0.020 C 
HETATM    8  C9  UNL     1     -34.356   6.874   6.508  1.00 20.00     0.012 C 
HETATM    9  C10 UNL     1     -35.154   7.680   3.819  1.00 20.00     0.024 C 
ENDROOT
BRANCH   7  10
HETATM   10  C3  UNL     1     -32.927   6.985   3.141  1.00 20.00     0.241 C 
HETATM   11  O11 UNL     1     -31.819   7.113   3.651  1.00 20.00    -0.306 OA
ENDBRANCH   7  10
TORSDOF 1
