REMARK  0 active torsions:
REMARK  status: ('A' for Active; 'I' for Inactive)
ROOT
HETATM    1  C1  UNL     1     -33.403   6.757   2.976  1.00 20.00     0.041 A 
HETATM    2  C2  UNL     1     -33.733   6.532   4.261  1.00 20.00     0.101 A 
HETATM    3  C3  UNL     1     -34.290   5.654   2.451  1.00 20.00     0.138 A 
HETATM    4  C4  UNL     1     -34.677   5.385   3.925  1.00 20.00     0.287 A 
HETATM    5  F5  UNL     1     -34.355   4.149   4.377  1.00 20.00    -0.199 F 
HETATM    6  F6  UNL     1     -35.993   5.549   4.201  1.00 20.00    -0.199 F 
HETATM    7 CL7  UNL     1     -32.331   7.913   2.187  1.00 20.00    -0.087 Cl
HETATM    8 CL8  UNL     1     -33.258   7.280   5.785  1.00 20.00    -0.081 Cl
ENDROOT
TORSDOF 0
