REMARK  0 active torsions:
REMARK  status: ('A' for Active; 'I' for Inactive)
ROOT
HETATM    1  C1  UNL     1     -32.399   7.661   3.726  1.00 20.00     0.019 A 
HETATM    2  C2  UNL     1     -32.953   7.210   4.860  1.00 20.00     0.054 A 
HETATM    3  C3  UNL     1     -33.863   5.219   3.624  1.00 20.00     0.096 A 
HETATM    4  C4  UNL     1     -33.309   5.672   2.491  1.00 20.00     0.133 A 
HETATM    5  C5  UNL     1     -32.515   6.941   2.414  1.00 20.00     0.254 A 
HETATM    6  C6  UNL     1     -33.746   5.938   4.936  1.00 20.00     0.282 A 
HETATM    7  F7  UNL     1     -33.474   4.949   1.360  1.00 20.00    -0.207 F 
HETATM    8  F8  UNL     1     -33.077   7.772   1.490  1.00 20.00    -0.238 F 
HETATM    9  F9  UNL     1     -33.181   5.107   5.858  1.00 20.00    -0.197 F 
HETATM   10  F10 UNL     1     -34.994   6.212   5.413  1.00 20.00    -0.197 F 
ENDROOT
TORSDOF 0
