REMARK  1 active torsions:
REMARK  status: ('A' for Active; 'I' for Inactive)
REMARK    1  A    between atoms: C9_9  and  C10_10 
ROOT
HETATM    1  C1  UNL     1     -34.887   5.563   4.948  1.00 20.00     0.001 A 
HETATM    2  C2  UNL     1     -34.037   6.505   5.686  1.00 20.00     0.001 A 
HETATM    3  C3  UNL     1     -34.840   5.456   3.603  1.00 20.00     0.012 A 
HETATM    4  C4  UNL     1     -33.159   7.319   5.065  1.00 20.00     0.012 A 
HETATM    5  C5  UNL     1     -33.665   6.410   1.577  1.00 20.00     0.009 A 
HETATM    6  C6  UNL     1     -32.299   7.923   2.765  1.00 20.00     0.009 A 
HETATM    7  C7  UNL     1     -33.914   6.305   2.891  1.00 20.00    -0.028 A 
HETATM    8  C8  UNL     1     -33.069   7.241   3.625  1.00 20.00    -0.028 A 
HETATM    9  C10 UNL     1     -32.591   7.449   1.361  1.00 20.00     0.082 A 
HETATM   10  C11 UNL     1     -31.365   6.900   0.650  1.00 20.00     0.035 C 
ENDROOT
BRANCH   9  11
HETATM   11  C9  UNL     1     -33.193   8.600   0.586  1.00 20.00     0.189 C 
HETATM   12  O12 UNL     1     -33.115   8.504  -0.670  1.00 20.00    -0.647 OA
HETATM   13  O13 UNL     1     -33.698   9.512   1.299  1.00 20.00    -0.647 OA
ENDBRANCH   9  11
TORSDOF 1
