REMARK  0 active torsions:
REMARK  status: ('A' for Active; 'I' for Inactive)
ROOT
HETATM    1  C1  UNL     1     -32.826   5.430   2.526  1.00 20.00     0.019 A 
HETATM    2  C2  UNL     1     -33.872   4.768   3.040  1.00 20.00     0.054 A 
HETATM    3  C3  UNL     1     -33.965   6.397   4.952  1.00 20.00     0.096 A 
HETATM    4  C4  UNL     1     -32.919   7.058   4.437  1.00 20.00     0.133 A 
HETATM    5  C5  UNL     1     -32.232   6.650   3.168  1.00 20.00     0.254 A 
HETATM    6  C6  UNL     1     -34.558   5.177   4.311  1.00 20.00     0.282 A 
HETATM    7  F7  UNL     1     -32.460   8.148   5.093  1.00 20.00    -0.207 F 
HETATM    8  F8  UNL     1     -32.261   7.688   2.284  1.00 20.00    -0.238 F 
HETATM    9  F9  UNL     1     -35.880   5.397   4.059  1.00 20.00    -0.197 F 
HETATM   10  F10 UNL     1     -34.525   4.140   5.196  1.00 20.00    -0.197 F 
ENDROOT
TORSDOF 0
