REMARK  1 active torsions:
REMARK  status: ('A' for Active; 'I' for Inactive)
REMARK    1  A    between atoms: C6_6  and  C10_10 
ROOT
HETATM    1  C1  UNL     1     -33.462   5.443   2.467  1.00 20.00     0.142 A 
HETATM    2  C2  UNL     1     -31.872   7.837   2.869  1.00 20.00     0.006 C 
HETATM    3  C3  UNL     1     -32.508   7.208   4.119  1.00 20.00     0.019 C 
HETATM    4  C4  UNL     1     -33.925   6.784   2.180  1.00 20.00     0.076 A 
HETATM    5  C5  UNL     1     -33.031   7.953   1.861  1.00 20.00    -0.006 C 
HETATM    6  C6  UNL     1     -33.641   6.345   3.597  1.00 20.00     0.034 A 
HETATM    7  C7  UNL     1     -32.557   7.951   0.418  1.00 20.00     0.011 C 
HETATM    8  O11 UNL     1     -32.526   4.778   2.072  1.00 20.00    -0.297 OA
ENDROOT
BRANCH   6   9
HETATM    9  C10 UNL     1     -34.780   6.127   4.548  1.00 20.00    -0.006 C 
HETATM   10  C8  UNL     1     -35.645   4.929   4.127  1.00 20.00     0.011 C 
HETATM   11  C9  UNL     1     -34.281   5.920   5.987  1.00 20.00     0.011 C 
ENDBRANCH   6   9
TORSDOF 1
