REMARK  2 active torsions:
REMARK  status: ('A' for Active; 'I' for Inactive)
REMARK    1  A    between atoms: C6_6  and  C10_10 
REMARK    2  A    between atoms: C7_7  and  C11_11 
ROOT
HETATM    1  C1  UNL     1     -33.128   4.463   2.499  1.00 20.00    -0.025 C 
HETATM    2  C2  UNL     1     -33.333   5.137   1.357  1.00 20.00    -0.025 C 
HETATM    3  C3  UNL     1     -35.217   5.425   2.658  1.00 20.00     0.017 C 
HETATM    4  C4  UNL     1     -34.019   5.084   3.552  1.00 20.00     0.013 C 
HETATM    5  C5  UNL     1     -34.365   6.202   1.646  1.00 20.00     0.013 C 
HETATM    6  C6  UNL     1     -33.431   6.485   3.876  1.00 20.00    -0.002 C 
HETATM    7  C7  UNL     1     -33.765   7.294   2.574  1.00 20.00    -0.002 C 
ENDROOT
BRANCH   6   8
HETATM    8  C10 UNL     1     -34.060   7.111   5.117  1.00 20.00     0.001 C 
HETATM    9  C8  UNL     1     -33.798   6.296   6.341  1.00 20.00     0.005 C 
ENDBRANCH   6   8
BRANCH   7  10
HETATM   10  C11 UNL     1     -32.563   8.027   1.995  1.00 20.00     0.001 C 
HETATM   11  C9  UNL     1     -32.906   8.749   0.731  1.00 20.00     0.005 C 
ENDBRANCH   7  10
TORSDOF 2
