REMARK  0 active torsions:
REMARK  status: ('A' for Active; 'I' for Inactive)
ROOT
HETATM    1  C1  UNL     1     -33.856   6.808   4.444  1.00 20.00    -0.007 A 
HETATM    2  C2  UNL     1     -33.522   6.330   3.236  1.00 20.00    -0.014 A 
HETATM    3  C3  UNL     1     -34.192   5.001   2.996  1.00 20.00     0.051 A 
HETATM    4  C4  UNL     1     -34.350   4.547   5.595  1.00 20.00     0.014 A 
HETATM    5  C5  UNL     1     -34.776   5.928   5.184  1.00 20.00     0.014 A 
HETATM    6  C6  UNL     1     -35.004   4.748   4.254  1.00 20.00    -0.002 A 
HETATM    7 BR7  UNL     1     -32.417   7.071   1.976  1.00 20.00    -0.056 Br
ENDROOT
TORSDOF 0
