REMARK  0 active torsions:
REMARK  status: ('A' for Active; 'I' for Inactive)
ROOT
HETATM    1  C1  UNL     1     -32.972   7.960   1.028  1.00 20.00     0.012 C 
HETATM    2  C2  UNL     1     -32.801   7.242   1.975  1.00 20.00    -0.112 C 
HETATM    3  C3  UNL     1     -33.325   4.939   5.496  1.00 20.00    -0.026 C 
HETATM    4  C4  UNL     1     -33.190   4.293   4.325  1.00 20.00    -0.024 C 
HETATM    5  C5  UNL     1     -35.159   6.340   4.629  1.00 20.00     0.009 C 
HETATM    6  C6  UNL     1     -35.005   5.584   3.289  1.00 20.00     0.010 C 
HETATM    7  C7  UNL     1     -32.795   7.130   4.475  1.00 20.00     0.026 C 
HETATM    8  C8  UNL     1     -32.592   6.363   3.138  1.00 20.00     0.072 C 
HETATM    9  C9  UNL     1     -33.804   6.371   5.371  1.00 20.00     0.009 C 
HETATM   10  C10 UNL     1     -33.536   5.128   3.106  1.00 20.00     0.023 C 
ENDROOT
TORSDOF 0
