REMARK  0 active torsions:
REMARK  status: ('A' for Active; 'I' for Inactive)
ROOT
HETATM    1  C1  UNL     1     -32.777   7.099   3.857  1.00 20.00     0.129 C 
HETATM    2  C2  UNL     1     -33.438   6.001   3.466  1.00 20.00     0.136 C 
HETATM    3  C3  UNL     1     -32.841   7.654   5.245  1.00 20.00     0.073 C 
HETATM    4  C4  UNL     1     -33.979   7.062   6.077  1.00 20.00     0.008 C 
HETATM    5  C5  UNL     1     -34.083   5.551   5.872  1.00 20.00     0.016 C 
HETATM    6  C6  UNL     1     -34.308   5.169   4.386  1.00 20.00     0.009 C 
HETATM    7  C7  UNL     1     -35.780   5.394   3.993  1.00 20.00     0.022 C 
HETATM    8  C8  UNL     1     -33.972   3.679   4.205  1.00 20.00     0.022 C 
HETATM    9  F9  UNL     1     -32.025   7.753   2.943  1.00 20.00    -0.208 F 
HETATM   10  F10 UNL     1     -33.314   5.615   2.174  1.00 20.00    -0.207 F 
ENDROOT
TORSDOF 0
