REMARK  0 active torsions:
REMARK  status: ('A' for Active; 'I' for Inactive)
ROOT
HETATM    1  C1  UNL     1     -33.564   4.568   3.323  1.00 20.00    -0.011 A 
HETATM    2  C2  UNL     1     -33.726   5.897   3.234  1.00 20.00    -0.011 A 
HETATM    3  C3  UNL     1     -34.384   4.044   4.477  1.00 20.00     0.033 A 
HETATM    4  C4  UNL     1     -34.303   6.384   5.703  1.00 20.00     0.016 A 
HETATM    5  C5  UNL     1     -34.637   6.464   4.239  1.00 20.00     0.030 A 
HETATM    6  C6  UNL     1     -35.073   5.262   5.060  1.00 20.00    -0.002 A 
HETATM    7 BR7  UNL     1     -32.929   7.026   2.018  1.00 20.00    -0.056 Br
ENDROOT
TORSDOF 0
