REMARK  0 active torsions:
REMARK  status: ('A' for Active; 'I' for Inactive)
ROOT
HETATM    1  C1  UNL     1     -34.043   6.438   5.233  1.00 20.00    -0.087 C 
HETATM    2  C2  UNL     1     -34.192   7.137   6.358  1.00 20.00     0.014 C 
HETATM    3  C3  UNL     1     -33.482   6.777   3.869  1.00 20.00     0.049 C 
HETATM    4  C4  UNL     1     -34.361   5.008   4.852  1.00 20.00     0.049 C 
HETATM    5  C5  UNL     1     -34.300   5.547   3.399  1.00 20.00     0.065 C 
HETATM    6 BR6  UNL     1     -33.408   4.393   2.122  1.00 20.00    -0.091 Br
ENDROOT
TORSDOF 0
