REMARK  1 active torsions:
REMARK  status: ('A' for Active; 'I' for Inactive)
REMARK    1  A    between atoms: C1_1  and  C5_5 
ROOT
HETATM    1  C1  UNL     1     -32.815   7.707   2.111  1.00 20.00    -0.097 C 
HETATM    2  C2  UNL     1     -32.895   8.467   1.185  1.00 20.00    -0.110 C 
HETATM    3  C7  UNL     1     -32.994   9.392   0.057  1.00 20.00     0.112 C 
ENDROOT
BRANCH   1   4
HETATM    4  C5  UNL     1     -32.716   6.782   3.237  1.00 20.00     0.027 C 
HETATM    5  C3  UNL     1     -33.843   6.997   4.296  1.00 20.00     0.024 C 
HETATM    6  C4  UNL     1     -34.669   5.898   3.600  1.00 20.00     0.012 C 
HETATM    7  C6  UNL     1     -33.349   5.337   2.990  1.00 20.00    -0.029 C 
HETATM    8  C9  UNL     1     -33.500   4.882   1.536  1.00 20.00     0.016 C 
HETATM    9  C10 UNL     1     -32.771   4.190   3.831  1.00 20.00     0.016 C 
HETATM   10  C8  UNL     1     -31.306   6.843   3.819  1.00 20.00     0.030 C 
ENDBRANCH   1   4
TORSDOF 1
