REMARK  0 active torsions:
REMARK  status: ('A' for Active; 'I' for Inactive)
ROOT
HETATM    1  C1  UNL     1     -33.602   8.226   4.248  1.00 20.00     0.009 A 
HETATM    2  C2  UNL     1     -33.093   8.742   3.054  1.00 20.00     0.019 A 
HETATM    3  C3  UNL     1     -33.009   6.517   2.106  1.00 20.00     0.032 A 
HETATM    4  C4  UNL     1     -33.530   6.017   3.297  1.00 20.00    -0.011 A 
HETATM    5  C5  UNL     1     -33.832   6.856   4.373  1.00 20.00    -0.045 A 
HETATM    6  C6  UNL     1     -32.798   7.889   1.987  1.00 20.00     0.011 A 
HETATM    7  C7  UNL     1     -33.744   4.578   3.477  1.00 20.00     0.122 C 
HETATM    8  C8  UNL     1     -34.315   6.234   5.648  1.00 20.00     0.061 C 
HETATM    9  C9  UNL     1     -35.131   4.982   5.339  1.00 20.00     0.153 C 
HETATM   10  N10 UNL     1     -34.436   4.056   4.433  1.00 20.00    -0.300 NA
HETATM   11 BR11 UNL     1     -32.100   8.600   0.379  1.00 20.00    -0.051 Br
ENDROOT
TORSDOF 0
