REMARK  1 active torsions:
REMARK  status: ('A' for Active; 'I' for Inactive)
REMARK    1  A    between atoms: C4_4  and  C6_6 
ROOT
HETATM    1  C1  UNL     1     -32.891   5.378   2.571  1.00 20.00     0.062 C 
HETATM    2  C2  UNL     1     -34.644   6.579   2.698  1.00 20.00     0.062 C 
HETATM    3  C3  UNL     1     -32.938   7.058   3.876  1.00 20.00     0.062 C 
HETATM    4  C4  UNL     1     -33.836   5.757   3.784  1.00 20.00     0.067 C 
HETATM    5  C5  UNL     1     -33.165   6.888   2.353  1.00 20.00     0.106 C 
HETATM    6  F7  UNL     1     -32.708   7.657   1.379  1.00 20.00    -0.243 F 
ENDROOT
BRANCH   4   7
HETATM    7  C6  UNL     1     -34.348   4.897   4.873  1.00 20.00     0.395 C 
HETATM    8  F8  UNL     1     -33.341   4.354   5.607  1.00 20.00    -0.170 F 
HETATM    9  F9  UNL     1     -35.138   5.586   5.737  1.00 20.00    -0.170 F 
HETATM   10  F10 UNL     1     -35.091   3.863   4.398  1.00 20.00    -0.170 F 
ENDBRANCH   4   7
TORSDOF 1
