REMARK  0 active torsions:
REMARK  status: ('A' for Active; 'I' for Inactive)
ROOT
HETATM    1  C1  UNL     1     -32.241   7.173   2.089  1.00 20.00     0.013 C 
HETATM    2  C2  UNL     1     -32.988   6.436   2.671  1.00 20.00    -0.104 C 
HETATM    3  C3  UNL     1     -35.233   6.114   3.773  1.00 20.00     0.069 A 
HETATM    4  C4  UNL     1     -33.887   5.550   3.372  1.00 20.00     0.057 A 
HETATM    5  C5  UNL     1     -34.202   5.840   4.837  1.00 20.00     0.133 A 
HETATM    6  C6  UNL     1     -33.851   4.129   2.868  1.00 20.00     0.032 C 
HETATM    7 CL7  UNL     1     -34.514   4.514   5.959  1.00 20.00    -0.100 Cl
HETATM    8 CL8  UNL     1     -33.482   7.240   5.644  1.00 20.00    -0.100 Cl
ENDROOT
TORSDOF 0
