REMARK  0 active torsions:
REMARK  status: ('A' for Active; 'I' for Inactive)
ROOT
HETATM    1  C1  UNL     1     -33.347   7.326   5.633  1.00 20.00    -0.012 C 
HETATM    2  C2  UNL     1     -33.348   6.261   6.458  1.00 20.00    -0.016 C 
HETATM    3  C3  UNL     1     -33.631   6.580   3.362  1.00 20.00    -0.010 C 
HETATM    4  C4  UNL     1     -33.840   5.174   2.839  1.00 20.00     0.014 C 
HETATM    5  C5  UNL     1     -34.231   6.925   4.547  1.00 20.00     0.051 C 
HETATM    6  C6  UNL     1     -34.306   5.265   5.955  1.00 20.00     0.034 C 
HETATM    7  C7  UNL     1     -35.182   5.888   5.111  1.00 20.00     0.224 C 
HETATM    8  C8  UNL     1     -34.526   4.341   3.693  1.00 20.00     0.216 C 
HETATM    9  C9  UNL     1     -33.841   4.055   5.110  1.00 20.00     0.066 C 
HETATM   10  N10 UNL     1     -35.691   5.001   4.155  1.00 20.00     0.115 N 
HETATM   11  H17 UNL     1     -36.429   4.387   4.488  1.00 20.00     0.318 HD
ENDROOT
TORSDOF 0
