REMARK  0 active torsions:
REMARK  status: ('A' for Active; 'I' for Inactive)
ROOT
HETATM    1  C1  UNL     1     -34.944   3.989   4.486  1.00 20.00     0.001 C 
HETATM    2  C2  UNL     1     -32.188   7.250   1.988  1.00 20.00     0.001 C 
HETATM    3  C3  UNL     1     -33.857   4.181   3.421  1.00 20.00     0.005 C 
HETATM    4  C4  UNL     1     -32.571   5.781   1.915  1.00 20.00     0.005 C 
HETATM    5  C5  UNL     1     -34.592   4.567   5.859  1.00 20.00     0.005 C 
HETATM    6  C6  UNL     1     -32.134   7.565   3.482  1.00 20.00     0.005 C 
HETATM    7  C7  UNL     1     -33.810   6.942   6.601  1.00 20.00     0.010 A 
HETATM    8  C8  UNL     1     -33.583   5.641   3.050  1.00 20.00    -0.010 C 
HETATM    9  C9  UNL     1     -34.817   6.047   5.928  1.00 20.00    -0.010 A 
HETATM   10  C10 UNL     1     -32.941   6.459   4.183  1.00 20.00    -0.006 C 
HETATM   11  C11 UNL     1     -33.987   7.003   5.107  1.00 20.00    -0.006 A 
ENDROOT
TORSDOF 0
