REMARK  1 active torsions:
REMARK  status: ('A' for Active; 'I' for Inactive)
REMARK    1  A    between atoms: C8_8  and  C11_11 
ROOT
HETATM    1  C1  UNL     1     -33.059   5.512   2.283  1.00 20.00    -0.081 C 
HETATM    2  C2  UNL     1     -32.712   4.335   1.765  1.00 20.00     0.015 C 
HETATM    3  C3  UNL     1     -32.840   7.779   1.870  1.00 20.00     0.010 C 
HETATM    4  C4  UNL     1     -32.090   7.411   3.167  1.00 20.00     0.010 C 
HETATM    5  C5  UNL     1     -34.947   6.757   2.774  1.00 20.00     0.014 C 
HETATM    6  C6  UNL     1     -33.853   6.638   1.701  1.00 20.00     0.014 C 
HETATM    7  C7  UNL     1     -32.771   6.111   3.625  1.00 20.00     0.018 C 
HETATM    8  C8  UNL     1     -34.205   6.436   4.098  1.00 20.00    -0.002 C 
ENDROOT
BRANCH   8   9
HETATM    9  C11 UNL     1     -34.856   5.277   4.848  1.00 20.00    -0.018 C 
HETATM   10  C9  UNL     1     -34.454   3.941   4.226  1.00 20.00     0.010 C 
HETATM   11  C10 UNL     1     -34.478   5.315   6.327  1.00 20.00     0.010 C 
ENDBRANCH   8   9
TORSDOF 1
