REMARK  1 active torsions:
REMARK  status: ('A' for Active; 'I' for Inactive)
REMARK    1  A    between atoms: C6_6  and  C11_11 
ROOT
HETATM    1  C1  UNL     1     -33.495   5.127   2.878  1.00 20.00     0.003 C 
HETATM    2  C2  UNL     1     -32.959   5.932   1.948  1.00 20.00    -0.016 C 
HETATM    3  C3  UNL     1     -34.045   6.961   4.358  1.00 20.00    -0.019 C 
HETATM    4  C4  UNL     1     -33.932   5.635   4.163  1.00 20.00    -0.066 C 
HETATM    5  C5  UNL     1     -33.726   7.960   3.278  1.00 20.00     0.041 C 
HETATM    6  C6  UNL     1     -32.780   7.424   2.163  1.00 20.00    -0.020 C 
HETATM    7  C7  UNL     1     -34.271   4.626   5.216  1.00 20.00     0.048 C 
HETATM    8  C8  UNL     1     -31.311   7.672   2.557  1.00 20.00     0.020 C 
ENDROOT
BRANCH   6   9
HETATM    9  C11 UNL     1     -33.075   8.176   0.855  1.00 20.00    -0.011 C 
HETATM   10  C9  UNL     1     -32.932   9.676   1.071  1.00 20.00     0.010 C 
HETATM   11  C10 UNL     1     -32.146   7.689  -0.248  1.00 20.00     0.010 C 
ENDBRANCH   6   9
TORSDOF 1
