REMARK  1 active torsions:
REMARK  status: ('A' for Active; 'I' for Inactive)
REMARK    1  A    between atoms: C5_5  and  C6_6 
ROOT
HETATM    1  C1  UNL     1     -35.454   5.689   4.006  1.00 20.00     0.024 A 
HETATM    2  C2  UNL     1     -34.457   5.101   6.357  1.00 20.00     0.275 C 
HETATM    3  C3  UNL     1     -33.730   7.126   5.345  1.00 20.00     0.285 C 
HETATM    4  C4  UNL     1     -34.509   4.905   4.878  1.00 20.00     0.030 A 
HETATM    5  C5  UNL     1     -34.033   6.156   4.238  1.00 20.00     0.051 A 
HETATM    6  N7  UNL     1     -34.347   6.559   6.563  1.00 20.00     0.084 N 
HETATM    7  H18 UNL     1     -35.292   6.937   6.639  1.00 20.00     0.315 HD
ENDROOT
BRANCH   5   8
HETATM    8  C6  UNL     1     -33.064   6.101   3.098  1.00 20.00     0.363 C 
HETATM    9  F8  UNL     1     -33.122   7.256   2.384  1.00 20.00    -0.214 F 
HETATM   10  F9  UNL     1     -33.410   5.103   2.243  1.00 20.00    -0.214 F 
ENDBRANCH   5   8
TORSDOF 1
