REMARK  0 active torsions:
REMARK  status: ('A' for Active; 'I' for Inactive)
ROOT
HETATM    1  C1  UNL     1     -32.630   9.033   1.394  1.00 20.00     0.003 A 
HETATM    2  C2  UNL     1     -32.662   7.802   0.865  1.00 20.00     0.034 A 
HETATM    3  C3  UNL     1     -33.011   9.049   2.787  1.00 20.00     0.018 A 
HETATM    4  C4  UNL     1     -34.405   4.579   5.500  1.00 20.00     0.014 A 
HETATM    5  C5  UNL     1     -34.061   4.503   4.207  1.00 20.00     0.118 A 
HETATM    6  C6  UNL     1     -33.296   7.815   3.173  1.00 20.00     0.042 A 
HETATM    7  C7  UNL     1     -33.091   6.969   1.984  1.00 20.00     0.091 A 
HETATM    8  C8  UNL     1     -33.715   6.864   4.195  1.00 20.00     0.158 A 
HETATM    9  C9  UNL     1     -34.411   5.911   6.221  1.00 20.00     0.180 A 
HETATM   10  N10 UNL     1     -33.328   5.708   2.181  1.00 20.00    -0.166 NA
HETATM   11  N11 UNL     1     -34.018   7.106   5.421  1.00 20.00    -0.267 NA
HETATM   12  N12 UNL     1     -33.710   5.636   3.530  1.00 20.00    -0.226 N 
ENDROOT
TORSDOF 0
