REMARK  0 active torsions:
REMARK  status: ('A' for Active; 'I' for Inactive)
ROOT
HETATM    1  C1  UNL     1     -33.278   5.194   2.278  1.00 20.00     0.017 A 
HETATM    2  C2  UNL     1     -32.778   6.197   1.545  1.00 20.00     0.054 A 
HETATM    3  C3  UNL     1     -32.954   7.730   3.530  1.00 20.00     0.060 A 
HETATM    4  C4  UNL     1     -33.457   6.732   4.277  1.00 20.00    -0.044 A 
HETATM    5  C5  UNL     1     -33.673   5.345   3.718  1.00 20.00     0.221 A 
HETATM    6  C6  UNL     1     -32.562   7.577   2.089  1.00 20.00     0.280 A 
HETATM    7  C7  UNL     1     -33.834   6.931   5.715  1.00 20.00     0.046 C 
HETATM    8  F8  UNL     1     -34.985   4.994   3.859  1.00 20.00    -0.240 F 
HETATM    9  F9  UNL     1     -31.251   7.921   1.940  1.00 20.00    -0.197 F 
HETATM   10  F10 UNL     1     -33.259   8.474   1.334  1.00 20.00    -0.197 F 
ENDROOT
TORSDOF 0
