REMARK  1 active torsions:
REMARK  status: ('A' for Active; 'I' for Inactive)
REMARK    1  A    between atoms: C8_8  and  C9_9 
ROOT
HETATM    1  C1  UNL     1     -33.455   7.317   5.700  1.00 20.00     0.014 C 
HETATM    2  C2  UNL     1     -33.049   8.465   1.463  1.00 20.00     0.014 C 
HETATM    3  C3  UNL     1     -33.317   6.944   4.568  1.00 20.00    -0.094 C 
HETATM    4  C4  UNL     1     -33.096   7.569   2.260  1.00 20.00    -0.094 C 
HETATM    5  C7  UNL     1     -32.293   5.282   2.968  1.00 20.00     0.043 A 
HETATM    6  C9  UNL     1     -33.784   5.187   2.776  1.00 20.00     0.025 A 
HETATM    7  C10 UNL     1     -33.153   6.498   3.214  1.00 20.00     0.089 A 
ENDROOT
BRANCH   6   8
HETATM    8  C8  UNL     1     -34.666   4.318   3.663  1.00 20.00    -0.008 A 
HETATM    9  C5  UNL     1     -34.448   4.188   5.145  1.00 20.00     0.005 A 
HETATM   10  C6  UNL     1     -35.668   4.896   4.625  1.00 20.00     0.005 A 
ENDBRANCH   6   8
TORSDOF 1
