REMARK  1 active torsions:
REMARK  status: ('A' for Active; 'I' for Inactive)
REMARK    1  A    between atoms: C1_1  and  C5_5 
ROOT
HETATM    1  C2  UNL     1     -34.908   3.895   4.217  1.00 20.00     0.006 C 
HETATM    2  C3  UNL     1     -35.943   4.790   4.909  1.00 20.00     0.006 C 
HETATM    3  C4  UNL     1     -33.987   4.777   6.215  1.00 20.00     0.011 C 
HETATM    4  C5  UNL     1     -33.160   5.773   4.235  1.00 20.00     0.084 C 
HETATM    5  C6  UNL     1     -33.567   4.390   4.794  1.00 20.00    -0.001 C 
HETATM    6  C7  UNL     1     -35.066   5.755   5.726  1.00 20.00    -0.006 C 
HETATM    7  C8  UNL     1     -34.258   6.727   4.799  1.00 20.00    -0.032 C 
HETATM    8  C9  UNL     1     -33.607   7.843   5.644  1.00 20.00     0.016 C 
HETATM    9  C10 UNL     1     -35.134   7.413   3.739  1.00 20.00     0.016 C 
ENDROOT
BRANCH   4  10
HETATM   10  C1  UNL     1     -32.967   5.766   2.748  1.00 20.00     0.224 C 
HETATM   11  O11 UNL     1     -33.164   4.757   2.077  1.00 20.00    -0.279 OA
HETATM   12 CL12 UNL     1     -32.452   7.313   2.148  1.00 20.00    -0.043 Cl
ENDBRANCH   4  10
TORSDOF 1
