REMARK  0 active torsions:
REMARK  status: ('A' for Active; 'I' for Inactive)
ROOT
HETATM    1  C1  UNL     1     -34.369   5.162   5.915  1.00 20.00    -0.025 C 
HETATM    2  C2  UNL     1     -34.491   6.503   5.917  1.00 20.00    -0.025 C 
HETATM    3  C3  UNL     1     -32.864   5.059   2.358  1.00 20.00    -0.022 C 
HETATM    4  C4  UNL     1     -32.348   6.251   1.980  1.00 20.00     0.007 C 
HETATM    5  C5  UNL     1     -35.865   5.642   4.285  1.00 20.00     0.018 C 
HETATM    6  C6  UNL     1     -34.690   4.675   4.502  1.00 20.00     0.017 C 
HETATM    7  C7  UNL     1     -35.013   6.919   4.562  1.00 20.00     0.016 C 
HETATM    8  C8  UNL     1     -33.508   5.253   3.684  1.00 20.00     0.023 C 
HETATM    9  C9  UNL     1     -32.796   7.381   2.907  1.00 20.00     0.198 C 
HETATM   10  C10 UNL     1     -34.036   6.689   3.409  1.00 20.00     0.039 C 
HETATM   11  F11 UNL     1     -31.907   7.594   3.904  1.00 20.00    -0.245 F 
ENDROOT
TORSDOF 0
