REMARK  2 active torsions:
REMARK  status: ('A' for Active; 'I' for Inactive)
REMARK    1  A    between atoms: C8_8  and  C10_10 
REMARK    2  A    between atoms: C10_10  and  C11_11 
ROOT
HETATM    1  C1  UNL     1     -37.006   4.675   5.240  1.00 20.00     0.012 C 
HETATM    2  C2  UNL     1     -35.863   4.918   4.965  1.00 20.00    -0.113 C 
HETATM    3  C3  UNL     1     -34.014   4.555   3.296  1.00 20.00     0.017 C 
HETATM    4  C4  UNL     1     -34.179   6.743   4.548  1.00 20.00     0.017 C 
HETATM    5  C5  UNL     1     -32.575   4.887   2.898  1.00 20.00     0.006 C 
HETATM    6  C6  UNL     1     -32.740   7.080   4.153  1.00 20.00     0.006 C 
HETATM    7  C7  UNL     1     -34.409   5.228   4.616  1.00 20.00     0.064 C 
HETATM    8  C8  UNL     1     -32.297   6.395   2.854  1.00 20.00    -0.014 C 
ENDROOT
BRANCH   8   9
HETATM    9  C10 UNL     1     -32.941   7.017   1.682  1.00 20.00     0.004 C 
BRANCH   9  10
HETATM   10  C11 UNL     1     -32.325   8.376   1.369  1.00 20.00    -0.004 C 
HETATM   11  C9  UNL     1     -32.971   9.005   0.146  1.00 20.00     0.005 C 
ENDBRANCH   9  10
ENDBRANCH   8   9
TORSDOF 2
