REMARK  2 active torsions:
REMARK  status: ('A' for Active; 'I' for Inactive)
REMARK    1  A    between atoms: C1_1  and  C6_6 
REMARK    2  A    between atoms: C2_2  and  C8_8 
ROOT
HETATM    1  C1  UNL     1     -32.726   7.627   2.450  1.00 20.00    -0.100 C 
HETATM    2  C2  UNL     1     -33.226   6.702   3.030  1.00 20.00    -0.088 C 
ENDROOT
BRANCH   1   3
HETATM    3  C6  UNL     1     -32.129   8.731   1.758  1.00 20.00     0.069 A 
HETATM    4  C5  UNL     1     -33.029   9.770   1.138  1.00 20.00     0.023 A 
HETATM    5  C7  UNL     1     -32.234   8.849   0.255  1.00 20.00    -0.002 A 
HETATM    6  C9  UNL     1     -32.933   7.835  -0.587  1.00 20.00     0.011 C 
ENDBRANCH   1   3
BRANCH   2   7
HETATM    7  C8  UNL     1     -33.834   5.576   3.736  1.00 20.00     0.055 A 
HETATM    8  C3  UNL     1     -34.937   5.759   4.665  1.00 20.00    -0.003 A 
HETATM    9  C4  UNL     1     -33.752   5.442   5.182  1.00 20.00    -0.003 A 
HETATM   10  C10 UNL     1     -33.819   4.307   2.925  1.00 20.00     0.038 C 
ENDBRANCH   2   7
TORSDOF 2
