REMARK  0 active torsions:
REMARK  status: ('A' for Active; 'I' for Inactive)
ROOT
HETATM    1  C1  UNL     1     -34.053   5.517   4.086  1.00 20.00    -0.059 A 
HETATM    2  C2  UNL     1     -33.307   5.465   2.964  1.00 20.00    -0.055 A 
HETATM    3  C3  UNL     1     -34.162   7.031   4.068  1.00 20.00     0.138 A 
HETATM    4  C4  UNL     1     -33.199   6.992   2.836  1.00 20.00     0.077 A 
HETATM    5  C5  UNL     1     -34.645   4.436   5.013  1.00 20.00     0.045 C 
HETATM    6  C6  UNL     1     -32.713   4.302   2.141  1.00 20.00     0.046 C 
HETATM    7  C7  UNL     1     -31.772   7.509   3.052  1.00 20.00     0.039 C 
HETATM    8 CL8  UNL     1     -33.696   7.940   5.567  1.00 20.00    -0.118 Cl
HETATM    9 CL9  UNL     1     -33.885   7.694   1.311  1.00 20.00    -0.113 Cl
ENDROOT
TORSDOF 0
