REMARK  0 active torsions:
REMARK  status: ('A' for Active; 'I' for Inactive)
ROOT
HETATM    1  C1  UNL     1     -33.615   6.488   4.291  1.00 20.00    -0.075 C 
HETATM    2  C2  UNL     1     -32.958   7.048   3.273  1.00 20.00     0.015 C 
HETATM    3  C3  UNL     1     -33.554   6.693   5.788  1.00 20.00     0.036 C 
HETATM    4  C4  UNL     1     -34.915   5.967   5.799  1.00 20.00     0.024 C 
HETATM    5  C5  UNL     1     -34.693   5.427   4.367  1.00 20.00     0.086 C 
HETATM    6 BR6  UNL     1     -33.999   3.625   4.238  1.00 20.00    -0.086 Br
ENDROOT
TORSDOF 0
