REMARK  1 active torsions:
REMARK  status: ('A' for Active; 'I' for Inactive)
REMARK    1  A    between atoms: C4_4  and  C6_6 
ROOT
HETATM    1  C1  UNL     1     -33.127   9.172   0.451  1.00 20.00     0.012 C 
HETATM    2  C2  UNL     1     -32.884   8.184   1.089  1.00 20.00    -0.109 C 
HETATM    3  C3  UNL     1     -33.242   7.075   3.225  1.00 20.00    -0.003 C 
HETATM    4  C4  UNL     1     -33.913   6.064   3.804  1.00 20.00    -0.061 C 
HETATM    5  C7  UNL     1     -34.044   4.709   3.155  1.00 20.00     0.038 C 
HETATM    6  C8  UNL     1     -33.065   4.499   1.996  1.00 20.00     0.006 C 
HETATM    7  C9  UNL     1     -33.020   5.724   1.090  1.00 20.00     0.021 C 
HETATM    8  C10 UNL     1     -32.586   6.973   1.872  1.00 20.00     0.087 C 
ENDROOT
BRANCH   4   9
HETATM    9  C6  UNL     1     -34.538   6.219   5.095  1.00 20.00    -0.004 C 
HETATM   10  C5  UNL     1     -33.904   6.908   6.058  1.00 20.00     0.012 C 
ENDBRANCH   4   9
TORSDOF 1
