REMARK  2 active torsions:
REMARK  status: ('A' for Active; 'I' for Inactive)
REMARK    1  A    between atoms: C7_7  and  C9_9 
REMARK    2  A    between atoms: C8_8  and  C10_10 
ROOT
HETATM    1  C1  UNL     1     -31.780   8.235   1.156  1.00 20.00     0.012 C 
HETATM    2  C2  UNL     1     -32.668   7.693   1.754  1.00 20.00    -0.112 C 
HETATM    3  C6  UNL     1     -33.731   7.046   2.469  1.00 20.00     0.074 A 
HETATM    4  C9  UNL     1     -33.458   5.683   3.070  1.00 20.00     0.011 A 
HETATM    5  C10 UNL     1     -33.583   6.878   3.966  1.00 20.00     0.011 A 
ENDROOT
BRANCH   4   6
HETATM    6  C7  UNL     1     -34.536   4.729   3.579  1.00 20.00    -0.008 C 
HETATM    7  C3  UNL     1     -34.052   4.183   4.943  1.00 20.00     0.005 C 
HETATM    8  C4  UNL     1     -34.182   5.419   5.870  1.00 20.00     0.005 C 
HETATM    9  C8  UNL     1     -34.722   6.507   4.913  1.00 20.00    -0.008 C 
HETATM   10  C5  UNL     1     -35.666   5.661   4.044  1.00 20.00     0.010 C 
ENDBRANCH   4   6
TORSDOF 2
