REMARK  0 active torsions:
REMARK  status: ('A' for Active; 'I' for Inactive)
ROOT
HETATM    1  C1  UNL     1     -33.786   6.916   6.034  1.00 20.00     0.001 C 
HETATM    2  C2  UNL     1     -31.945   6.264   1.993  1.00 20.00     0.001 C 
HETATM    3  C3  UNL     1     -33.022   7.254   4.763  1.00 20.00     0.005 C 
HETATM    4  C4  UNL     1     -32.923   7.409   2.268  1.00 20.00     0.005 C 
HETATM    5  C5  UNL     1     -33.738   5.440   6.386  1.00 20.00     0.005 C 
HETATM    6  C6  UNL     1     -32.558   5.021   2.641  1.00 20.00     0.005 C 
HETATM    7  C7  UNL     1     -35.810   4.902   4.837  1.00 20.00     0.010 A 
HETATM    8  C8  UNL     1     -33.770   6.934   3.463  1.00 20.00    -0.010 C 
HETATM    9  C9  UNL     1     -34.541   4.506   5.550  1.00 20.00    -0.010 A 
HETATM   10  C10 UNL     1     -33.952   5.459   3.096  1.00 20.00    -0.006 C 
HETATM   11  C11 UNL     1     -34.589   4.501   4.043  1.00 20.00    -0.006 A 
ENDROOT
TORSDOF 0
