REMARK  1 active torsions:
REMARK  status: ('A' for Active; 'I' for Inactive)
REMARK    1  A    between atoms: C7_7  and  C11_11 
ROOT
HETATM    1  C1  UNL     1     -35.742   5.677   4.008  1.00 20.00    -0.084 C 
HETATM    2  C2  UNL     1     -36.963   5.137   3.927  1.00 20.00     0.014 C 
HETATM    3  C3  UNL     1     -35.039   6.391   2.874  1.00 20.00     0.044 C 
HETATM    4  C4  UNL     1     -34.096   8.162   4.544  1.00 20.00     0.016 A 
HETATM    5  C5  UNL     1     -34.893   5.765   5.266  1.00 20.00     0.014 C 
HETATM    6  C6  UNL     1     -33.781   6.743   4.941  1.00 20.00     0.003 A 
HETATM    7  C7  UNL     1     -33.852   7.109   3.487  1.00 20.00    -0.029 A 
HETATM    8  C8  UNL     1     -34.325   4.402   5.654  1.00 20.00     0.015 C 
ENDROOT
BRANCH   7   9
HETATM    9  C11 UNL     1     -32.602   7.180   2.669  1.00 20.00    -0.014 C 
HETATM   10  C9  UNL     1     -32.845   7.879   1.321  1.00 20.00     0.010 C 
HETATM   11  C10 UNL     1     -31.471   7.901   3.422  1.00 20.00     0.010 C 
ENDBRANCH   7   9
TORSDOF 1
