REMARK  1 active torsions:
REMARK  status: ('A' for Active; 'I' for Inactive)
REMARK    1  A    between atoms: C8_8  and  C11_11 
ROOT
HETATM    1  C1  UNL     1     -33.770   5.323   1.878  1.00 20.00    -0.084 C 
HETATM    2  C2  UNL     1     -34.260   4.085   1.778  1.00 20.00     0.014 C 
HETATM    3  C3  UNL     1     -34.293   6.546   1.168  1.00 20.00     0.038 C 
HETATM    4  C4  UNL     1     -31.987   6.808   1.717  1.00 20.00     0.014 C 
HETATM    5  C5  UNL     1     -33.549   7.887   3.171  1.00 20.00     0.010 C 
HETATM    6  C6  UNL     1     -32.551   5.748   2.669  1.00 20.00     0.018 C 
HETATM    7  C7  UNL     1     -33.293   7.607   1.673  1.00 20.00    -0.010 C 
HETATM    8  C8  UNL     1     -32.977   6.628   3.866  1.00 20.00    -0.003 C 
ENDROOT
BRANCH   8   9
HETATM    9  C11 UNL     1     -33.948   5.980   4.842  1.00 20.00    -0.018 C 
HETATM   10  C9  UNL     1     -33.334   4.725   5.464  1.00 20.00     0.010 C 
HETATM   11  C10 UNL     1     -34.361   6.968   5.933  1.00 20.00     0.010 C 
ENDBRANCH   8   9
TORSDOF 1
