REMARK  0 active torsions:
REMARK  status: ('A' for Active; 'I' for Inactive)
ROOT
HETATM    1  C1  UNL     1     -32.674   5.704   2.348  1.00 20.00     0.017 A 
HETATM    2  C2  UNL     1     -33.628   4.893   2.824  1.00 20.00     0.054 A 
HETATM    3  C3  UNL     1     -33.877   6.373   4.840  1.00 20.00     0.060 A 
HETATM    4  C4  UNL     1     -32.922   7.197   4.373  1.00 20.00    -0.044 A 
HETATM    5  C5  UNL     1     -32.215   6.942   3.063  1.00 20.00     0.221 A 
HETATM    6  C6  UNL     1     -34.336   5.138   4.121  1.00 20.00     0.280 A 
HETATM    7  C7  UNL     1     -32.494   8.421   5.128  1.00 20.00     0.046 C 
HETATM    8  F8  UNL     1     -32.378   8.017   2.238  1.00 20.00    -0.240 F 
HETATM    9  F9  UNL     1     -35.678   5.220   3.895  1.00 20.00    -0.197 F 
HETATM   10  F10 UNL     1     -34.172   4.056   4.936  1.00 20.00    -0.197 F 
ENDROOT
TORSDOF 0
