REMARK  0 active torsions:
REMARK  status: ('A' for Active; 'I' for Inactive)
ROOT
HETATM    1  C1  UNL     1     -33.729   6.973   4.871  1.00 20.00     0.022 A 
HETATM    2  C2  UNL     1     -33.965   4.743   3.728  1.00 20.00     0.022 A 
HETATM    3  C3  UNL     1     -33.327   7.520   3.714  1.00 20.00     0.054 A 
HETATM    4  C4  UNL     1     -33.563   5.295   2.574  1.00 20.00     0.054 A 
HETATM    5  C5  UNL     1     -34.077   5.513   5.021  1.00 20.00     0.135 A 
HETATM    6  C6  UNL     1     -33.184   6.740   2.442  1.00 20.00     0.280 A 
HETATM    7  C7  UNL     1     -33.183   4.874   6.083  1.00 20.00     0.061 C 
HETATM    8  F8  UNL     1     -35.363   5.417   5.474  1.00 20.00    -0.234 F 
HETATM    9  F9  UNL     1     -31.898   6.831   1.997  1.00 20.00    -0.197 F 
HETATM   10  F10 UNL     1     -33.946   7.319   1.470  1.00 20.00    -0.197 F 
ENDROOT
TORSDOF 0
