REMARK  0 active torsions:
REMARK  status: ('A' for Active; 'I' for Inactive)
ROOT
HETATM    1  C1  UNL     1     -32.225   7.304   0.892  1.00 20.00     0.001 C 
HETATM    2  C2  UNL     1     -32.563   5.807   0.850  1.00 20.00     0.005 C 
HETATM    3  C3  UNL     1     -32.638   7.811   2.281  1.00 20.00     0.005 C 
HETATM    4  C4  UNL     1     -33.541   4.164   2.596  1.00 20.00     0.011 C 
HETATM    5  C5  UNL     1     -33.866   4.129   4.098  1.00 20.00     0.079 C 
HETATM    6  C6  UNL     1     -33.772   6.678   4.318  1.00 20.00     0.084 C 
HETATM    7  C7  UNL     1     -33.465   5.590   2.057  1.00 20.00    -0.010 C 
HETATM    8  C8  UNL     1     -32.875   6.543   3.091  1.00 20.00    -0.005 C 
HETATM    9  C9  UNL     1     -34.563   5.395   4.582  1.00 20.00     0.244 C 
HETATM   10  F10 UNL     1     -34.829   5.295   5.909  1.00 20.00    -0.206 F 
HETATM   11  F11 UNL     1     -35.771   5.486   3.962  1.00 20.00    -0.206 F 
ENDROOT
TORSDOF 0
