REMARK  1 active torsions:
REMARK  status: ('A' for Active; 'I' for Inactive)
REMARK    1  A    between atoms: C4_4  and  C7_7 
ROOT
HETATM    1  C1  UNL     1     -35.121   5.230   4.805  1.00 20.00     0.014 C 
HETATM    2  C2  UNL     1     -34.288   5.573   4.011  1.00 20.00    -0.091 C 
HETATM    3  C3  UNL     1     -32.373   7.122   3.435  1.00 20.00     0.046 A 
HETATM    4  C4  UNL     1     -33.447   7.339   2.406  1.00 20.00     0.024 A 
HETATM    5  C5  UNL     1     -33.294   5.982   3.063  1.00 20.00     0.103 A 
HETATM    6 CL8  UNL     1     -32.595   4.640   2.154  1.00 20.00    -0.105 Cl
ENDROOT
BRANCH   4   7
HETATM    7  C7  UNL     1     -33.075   7.599   0.986  1.00 20.00     0.003 C 
HETATM    8  C6  UNL     1     -32.699   9.036   0.730  1.00 20.00     0.005 C 
ENDBRANCH   4   7
TORSDOF 1
