REMARK  1 active torsions:
REMARK  status: ('A' for Active; 'I' for Inactive)
REMARK    1  A    between atoms: C2_2  and  C6_6 
ROOT
HETATM    1  C3  UNL     1     -33.487   4.825   2.250  1.00 20.00     0.006 C 
HETATM    2  C4  UNL     1     -34.461   5.865   1.668  1.00 20.00     0.006 C 
HETATM    3  C5  UNL     1     -31.944   6.635   2.943  1.00 20.00     0.014 C 
HETATM    4  C6  UNL     1     -32.906   7.719   2.398  1.00 20.00     0.012 C 
HETATM    5  C7  UNL     1     -32.912   5.552   3.487  1.00 20.00    -0.006 C 
HETATM    6  C8  UNL     1     -34.299   7.065   2.636  1.00 20.00     0.001 C 
HETATM    7  C9  UNL     1     -34.117   6.368   4.014  1.00 20.00    -0.040 C 
HETATM    8  C10 UNL     1     -33.787   7.310   5.188  1.00 20.00     0.015 C 
HETATM    9  C11 UNL     1     -35.321   5.521   4.471  1.00 20.00     0.015 C 
ENDROOT
BRANCH   4  10
HETATM   10  C2  UNL     1     -32.616   8.140   0.994  1.00 20.00    -0.032 C 
HETATM   11  C1  UNL     1     -32.874   9.359   0.510  1.00 20.00     0.007 C 
ENDBRANCH   4  10
TORSDOF 1
