REMARK  0 active torsions:
REMARK  status: ('A' for Active; 'I' for Inactive)
ROOT
HETATM    1  C1  UNL     1     -33.021   5.971   6.131  1.00 20.00     0.005 C 
HETATM    2  C2  UNL     1     -35.008   4.692   5.314  1.00 20.00     0.005 C 
HETATM    3  C3  UNL     1     -33.440   7.170   5.268  1.00 20.00     0.011 C 
HETATM    4  C4  UNL     1     -35.424   5.893   4.451  1.00 20.00     0.011 C 
HETATM    5  C5  UNL     1     -32.835   4.547   4.080  1.00 20.00     0.084 C 
HETATM    6  C6  UNL     1     -33.478   4.655   5.476  1.00 20.00    -0.009 C 
HETATM    7  C7  UNL     1     -34.182   6.685   4.011  1.00 20.00     0.058 C 
HETATM    8  C8  UNL     1     -33.256   5.746   3.231  1.00 20.00     0.247 C 
HETATM    9  F9  UNL     1     -32.155   6.424   2.818  1.00 20.00    -0.206 F 
HETATM   10  F10 UNL     1     -33.880   5.313   2.107  1.00 20.00    -0.206 F 
ENDROOT
TORSDOF 0
