REMARK  1 active torsions:
REMARK  status: ('A' for Active; 'I' for Inactive)
REMARK    1  A    between atoms: C5_5  and  C7_7 
ROOT
HETATM    1  C1  UNL     1     -33.410   5.818   6.081  1.00 20.00     0.001 C 
HETATM    2  C2  UNL     1     -34.699   5.006   5.948  1.00 20.00     0.001 C 
HETATM    3  C3  UNL     1     -33.415   6.817   4.927  1.00 20.00     0.018 C 
HETATM    4  C4  UNL     1     -35.423   5.555   4.720  1.00 20.00     0.018 C 
HETATM    5  C5  UNL     1     -34.322   6.189   3.859  1.00 20.00     0.054 C 
HETATM    6  C6  UNL     1     -34.889   7.246   2.909  1.00 20.00     0.024 C 
ENDROOT
BRANCH   5   7
HETATM    7  C7  UNL     1     -33.569   5.126   3.043  1.00 20.00     0.395 C 
HETATM    8  F8  UNL     1     -33.139   4.155   3.857  1.00 20.00    -0.170 F 
HETATM    9  F9  UNL     1     -34.388   4.602   2.124  1.00 20.00    -0.170 F 
HETATM   10  F10 UNL     1     -32.520   5.688   2.431  1.00 20.00    -0.170 F 
ENDBRANCH   5   7
TORSDOF 1
