REMARK  2 active torsions:
REMARK  status: ('A' for Active; 'I' for Inactive)
REMARK    1  A    between atoms: C4_4  and  C12_12 
REMARK    2  A    between atoms: C5_5  and  C11_11 
ROOT
HETATM    1  C1  UNL     1     -32.994   5.409   2.220  1.00 20.00     0.004 A 
HETATM    2  C2  UNL     1     -32.435   6.304   1.394  1.00 20.00    -0.017 A 
HETATM    3  C3  UNL     1     -33.304   7.404   3.267  1.00 20.00    -0.010 A 
HETATM    4  C4  UNL     1     -33.531   6.086   3.377  1.00 20.00    -0.054 A 
HETATM    5  C5  UNL     1     -32.573   7.687   1.978  1.00 20.00     0.034 A 
ENDROOT
BRANCH   4   6
HETATM    6  C12 UNL     1     -34.212   5.362   4.478  1.00 20.00    -0.024 C 
HETATM    7  C8  UNL     1     -33.245   4.341   5.111  1.00 20.00     0.019 C 
HETATM    8  C9  UNL     1     -35.449   4.611   3.942  1.00 20.00     0.019 C 
HETATM    9  C10 UNL     1     -34.674   6.352   5.567  1.00 20.00     0.019 C 
ENDBRANCH   4   6
BRANCH   5  10
HETATM   10  C11 UNL     1     -33.354   8.623   1.066  1.00 20.00    -0.012 C 
HETATM   11  C6  UNL     1     -33.503  10.003   1.707  1.00 20.00     0.010 C 
HETATM   12  C7  UNL     1     -32.676   8.740  -0.299  1.00 20.00     0.010 C 
ENDBRANCH   5  10
TORSDOF 2
