REMARK  0 active torsions:
REMARK  status: ('A' for Active; 'I' for Inactive)
ROOT
HETATM    1  C1  UNL     1     -33.958   5.864   6.190  1.00 20.00    -0.004 C 
HETATM    2  C2  UNL     1     -33.863   7.025   5.341  1.00 20.00    -0.003 C 
HETATM    3  C3  UNL     1     -34.432   4.699   5.726  1.00 20.00    -0.025 C 
HETATM    4  C4  UNL     1     -34.050   6.934   4.016  1.00 20.00    -0.011 C 
HETATM    5  C5  UNL     1     -34.880   4.525   4.299  1.00 20.00     0.047 C 
HETATM    6  C6  UNL     1     -34.391   5.633   3.348  1.00 20.00     0.084 C 
HETATM    7 BR7  UNL     1     -32.756   5.036   2.436  1.00 20.00    -0.087 Br
ENDROOT
TORSDOF 0
