REMARK  0 active torsions:
REMARK  status: ('A' for Active; 'I' for Inactive)
ROOT
HETATM    1  C1  UNL     1     -34.442   5.573   5.666  1.00 20.00    -0.027 A 
HETATM    2  C2  UNL     1     -34.763   4.391   5.111  1.00 20.00    -0.010 A 
HETATM    3  C3  UNL     1     -34.709   6.359   4.401  1.00 20.00     0.051 A 
HETATM    4  C4  UNL     1     -35.068   4.993   3.748  1.00 20.00     0.035 A 
HETATM    5  C5  UNL     1     -34.156   4.545   2.615  1.00 20.00     0.032 C 
HETATM    6 BR6  UNL     1     -36.957   4.787   3.287  1.00 20.00    -0.081 Br
ENDROOT
TORSDOF 0
