REMARK  1 active torsions:
REMARK  status: ('A' for Active; 'I' for Inactive)
REMARK    1  A    between atoms: C8_8  and  N9_9 
ROOT
HETATM    1  C1  UNL     1     -33.347   6.868   4.211  1.00 20.00     0.050 C 
HETATM    2  C2  UNL     1     -34.029   6.557   5.318  1.00 20.00     0.136 C 
HETATM    3  C3  UNL     1     -33.351   5.881   3.109  1.00 20.00     0.033 C 
HETATM    4  C4  UNL     1     -34.006   4.551   3.388  1.00 20.00     0.085 C 
HETATM    5  C7  UNL     1     -35.190   4.784   4.311  1.00 20.00     0.180 C 
HETATM    6  N9  UNL     1     -32.791   6.089   1.964  1.00 20.00    -0.289 NA
HETATM    7  O10 UNL     1     -34.812   5.449   5.521  1.00 20.00    -0.363 OA
ENDROOT
BRANCH   6   8
HETATM    8  C8  UNL     1     -32.145   7.386   1.839  1.00 20.00     0.108 A 
HETATM    9  C5  UNL     1     -31.994   7.966   0.461  1.00 20.00     0.029 A 
HETATM   10  C6  UNL     1     -32.992   8.552   1.416  1.00 20.00     0.029 A 
ENDBRANCH   6   8
TORSDOF 1
