REMARK  0 active torsions:
REMARK  status: ('A' for Active; 'I' for Inactive)
ROOT
HETATM    1  C1  UNL     1     -32.079   7.456   3.639  1.00 20.00     0.001 C 
HETATM    2  C2  UNL     1     -34.301   4.896   6.484  1.00 20.00     0.001 C 
HETATM    3  C3  UNL     1     -33.301   7.943   4.401  1.00 20.00     0.005 C 
HETATM    4  C4  UNL     1     -33.502   6.187   6.299  1.00 20.00     0.005 C 
HETATM    5  C5  UNL     1     -32.421   6.777   2.324  1.00 20.00     0.005 C 
HETATM    6  C6  UNL     1     -35.402   4.923   5.423  1.00 20.00     0.005 C 
HETATM    7  C7  UNL     1     -32.678   4.435   3.504  1.00 20.00     0.010 A 
HETATM    8  C8  UNL     1     -34.152   6.897   5.107  1.00 20.00    -0.010 C 
HETATM    9  C9  UNL     1     -32.988   5.402   2.388  1.00 20.00    -0.010 A 
HETATM   10  C10 UNL     1     -34.840   5.803   4.291  1.00 20.00    -0.006 C 
HETATM   11  C11 UNL     1     -34.086   4.948   3.317  1.00 20.00    -0.006 A 
ENDROOT
TORSDOF 0
