REMARK  0 active torsions:
REMARK  status: ('A' for Active; 'I' for Inactive)
ROOT
HETATM    1  C1  UNL     1     -32.415   7.676   2.322  1.00 20.00     0.014 C 
HETATM    2  C2  UNL     1     -33.112   7.117   3.123  1.00 20.00    -0.090 C 
HETATM    3  C3  UNL     1     -34.140   3.799   4.662  1.00 20.00     0.013 A 
HETATM    4  C4  UNL     1     -33.692   3.886   3.201  1.00 20.00     0.013 A 
HETATM    5  C5  UNL     1     -35.342   5.987   3.622  1.00 20.00     0.052 A 
HETATM    6  C6  UNL     1     -33.943   6.449   4.078  1.00 20.00     0.107 A 
HETATM    7  C7  UNL     1     -34.268   5.036   3.894  1.00 20.00    -0.005 A 
HETATM    8 CL8  UNL     1     -33.807   7.072   5.722  1.00 20.00    -0.104 Cl
ENDROOT
TORSDOF 0
