REMARK  0 active torsions:
REMARK  status: ('A' for Active; 'I' for Inactive)
ROOT
HETATM    1  C1  UNL     1     -33.177   5.482   2.020  1.00 20.00     0.021 A 
HETATM    2  C2  UNL     1     -34.172   5.062   3.013  1.00 20.00     0.029 A 
HETATM    3  C3  UNL     1     -34.649   5.044   6.546  1.00 20.00     0.025 A 
HETATM    4  C4  UNL     1     -32.310   6.469   2.334  1.00 20.00     0.107 A 
HETATM    5  C5  UNL     1     -33.500   7.156   5.785  1.00 20.00     0.101 C 
HETATM    6  C6  UNL     1     -34.980   5.567   5.382  1.00 20.00     0.038 A 
HETATM    7  C7  UNL     1     -34.448   6.463   6.464  1.00 20.00     0.028 A 
HETATM    8  C8  UNL     1     -34.137   5.669   4.211  1.00 20.00     0.044 A 
HETATM    9  N9  UNL     1     -32.329   7.084   3.572  1.00 20.00    -0.306 N 
HETATM   10  N10 UNL     1     -33.210   6.668   4.520  1.00 20.00    -0.274 N 
HETATM   11  H16 UNL     1     -31.627   7.779   3.793  1.00 20.00     0.186 HD
ENDROOT
TORSDOF 0
