REMARK  4 active torsions:
REMARK  status: ('A' for Active; 'I' for Inactive)
REMARK    1  A    between atoms: C1_1  and  C7_7 
REMARK    2  A    between atoms: C2_2  and  C9_9 
REMARK    3  A    between atoms: C9_9  and  C11_11 
REMARK    4  A    between atoms: C10_10  and  C11_11 
ROOT
HETATM    1  C1  UNL     1     -33.585   6.774   3.547  1.00 20.00    -0.098 C 
HETATM    2  C2  UNL     1     -32.673   7.228   2.911  1.00 20.00    -0.106 C 
ENDROOT
BRANCH   1   3
HETATM    3  C7  UNL     1     -34.700   6.219   4.323  1.00 20.00     0.087 C 
HETATM    4  C4  UNL     1     -34.886   4.772   3.995  1.00 20.00    -0.014 C 
HETATM    5  C3  UNL     1     -34.475   3.973   4.985  1.00 20.00    -0.029 C 
HETATM    6  C5  UNL     1     -33.935   4.752   6.136  1.00 20.00     0.028 C 
HETATM    7  C6  UNL     1     -34.397   6.179   5.827  1.00 20.00     0.025 C 
ENDBRANCH   1   3
BRANCH   2   8
HETATM    8  C9  UNL     1     -31.556   7.782   2.135  1.00 20.00     0.094 C 
BRANCH   8   9
HETATM    9  C11 UNL     1     -31.954   8.003   0.676  1.00 20.00     0.012 C 
BRANCH   9  10
HETATM   10  C10 UNL     1     -33.102   9.005   0.558  1.00 20.00    -0.004 C 
HETATM   11  C8  UNL     1     -32.736  10.347   1.172  1.00 20.00     0.005 C 
ENDBRANCH   9  10
ENDBRANCH   8   9
ENDBRANCH   2   8
TORSDOF 4
