REMARK  1 active torsions:
REMARK  status: ('A' for Active; 'I' for Inactive)
REMARK    1  A    between atoms: C1_1  and  C5_5 
ROOT
HETATM    1  C1  UNL     1     -33.089   6.464   3.065  1.00 20.00    -0.097 C 
HETATM    2  C2  UNL     1     -32.698   7.363   2.371  1.00 20.00    -0.110 C 
HETATM    3  C7  UNL     1     -32.222   8.457   1.526  1.00 20.00     0.112 C 
ENDROOT
BRANCH   1   4
HETATM    4  C5  UNL     1     -33.565   5.371   3.910  1.00 20.00     0.027 C 
HETATM    5  C3  UNL     1     -35.023   4.931   3.564  1.00 20.00     0.024 C 
HETATM    6  C4  UNL     1     -35.539   5.873   4.670  1.00 20.00     0.012 C 
HETATM    7  C6  UNL     1     -34.132   5.810   5.337  1.00 20.00    -0.029 C 
HETATM    8  C9  UNL     1     -34.070   4.749   6.446  1.00 20.00     0.016 C 
HETATM    9  C10 UNL     1     -33.662   7.158   5.889  1.00 20.00     0.016 C 
HETATM   10  C8  UNL     1     -32.553   4.228   3.875  1.00 20.00     0.030 C 
ENDBRANCH   1   4
TORSDOF 1
