REMARK  0 active torsions:
REMARK  status: ('A' for Active; 'I' for Inactive)
ROOT
HETATM    1  C1  UNL     1     -32.445   8.340   0.613  1.00 20.00     0.014 C 
HETATM    2  C2  UNL     1     -32.754   7.732   1.601  1.00 20.00    -0.091 C 
HETATM    3  C3  UNL     1     -34.940   6.046   4.112  1.00 20.00     0.003 C 
HETATM    4  C4  UNL     1     -33.988   4.916   3.716  1.00 20.00     0.003 C 
HETATM    5  C5  UNL     1     -34.582   7.234   3.220  1.00 20.00     0.039 C 
HETATM    6  C6  UNL     1     -33.105   5.477   2.602  1.00 20.00     0.039 C 
HETATM    7  C7  UNL     1     -33.132   6.991   2.805  1.00 20.00     0.099 C 
HETATM    8 CL8  UNL     1     -32.013   7.471   4.116  1.00 20.00    -0.105 Cl
ENDROOT
TORSDOF 0
