REMARK  1 active torsions:
REMARK  status: ('A' for Active; 'I' for Inactive)
REMARK    1  A    between atoms: C3_3  and  C6_6 
ROOT
HETATM    1  C1  UNL     1     -35.717   5.615   4.222  1.00 20.00     0.013 C 
HETATM    2  C2  UNL     1     -34.655   5.834   3.706  1.00 20.00    -0.107 C 
HETATM    3  C5  UNL     1     -32.473   7.099   3.766  1.00 20.00     0.033 A 
HETATM    4  C6  UNL     1     -33.188   7.491   2.502  1.00 20.00     0.030 A 
HETATM    5  C7  UNL     1     -33.380   6.099   3.086  1.00 20.00     0.027 A 
HETATM    6  C10 UNL     1     -32.738   4.899   2.440  1.00 20.00     0.030 C 
ENDROOT
BRANCH   4   7
HETATM    7  C3  UNL     1     -32.413   7.693   1.285  1.00 20.00    -0.018 C 
HETATM    8  C4  UNL     1     -32.602   8.626   0.333  1.00 20.00    -0.091 C 
HETATM    9  C8  UNL     1     -31.707   8.701  -0.872  1.00 20.00     0.042 C 
HETATM   10  C9  UNL     1     -33.695   9.657   0.379  1.00 20.00     0.042 C 
ENDBRANCH   4   7
TORSDOF 1
