REMARK  0 active torsions:
REMARK  status: ('A' for Active; 'I' for Inactive)
ROOT
HETATM    1  C1  UNL     1     -34.499   5.869   4.751  1.00 20.00    -0.064 A 
HETATM    2  C2  UNL     1     -34.278   6.740   5.718  1.00 20.00     0.016 C 
HETATM    3  C3  UNL     1     -33.903   5.158   2.135  1.00 20.00     0.017 A 
HETATM    4  C4  UNL     1     -33.255   6.303   2.783  1.00 20.00     0.017 A 
HETATM    5  C5  UNL     1     -35.444   5.000   4.230  1.00 20.00     0.099 A 
HETATM    6  C6  UNL     1     -33.903   5.211   3.649  1.00 20.00     0.000 A 
HETATM    7 BR7  UNL     1     -36.953   5.827   3.409  1.00 20.00    -0.085 Br
ENDROOT
TORSDOF 0
