REMARK  0 active torsions:
REMARK  status: ('A' for Active; 'I' for Inactive)
ROOT
HETATM    1  C1  UNL     1     -32.817   8.566   1.143  1.00 20.00     0.013 C 
HETATM    2  C2  UNL     1     -32.945   7.660   1.919  1.00 20.00    -0.106 C 
HETATM    3  C3  UNL     1     -32.889   6.880   4.319  1.00 20.00     0.041 A 
HETATM    4  C4  UNL     1     -34.284   6.667   3.801  1.00 20.00     0.079 A 
HETATM    5  C5  UNL     1     -33.098   6.570   2.853  1.00 20.00     0.033 A 
HETATM    6  C6  UNL     1     -32.610   5.241   2.342  1.00 20.00     0.030 C 
HETATM    7 BR7  UNL     1     -35.234   5.111   4.367  1.00 20.00    -0.089 Br
ENDROOT
TORSDOF 0
