REMARK  1 active torsions:
REMARK  status: ('A' for Active; 'I' for Inactive)
REMARK    1  A    between atoms: C1_1  and  C4_4 
ROOT
HETATM    1  C2  UNL     1     -34.503   4.566   5.081  1.00 20.00     0.054 A 
HETATM    2  C3  UNL     1     -35.565   5.238   4.262  1.00 20.00     0.054 A 
HETATM    3  C4  UNL     1     -34.174   5.809   4.300  1.00 20.00     0.156 A 
HETATM    4  F6  UNL     1     -34.024   6.968   5.057  1.00 20.00    -0.235 F 
ENDROOT
BRANCH   3   5
HETATM    5  C1  UNL     1     -33.316   5.720   3.115  1.00 20.00     0.274 C 
HETATM    6  O5  UNL     1     -33.259   4.730   2.395  1.00 20.00    -0.303 OA
ENDBRANCH   3   5
TORSDOF 1
