REMARK  1 active torsions:
REMARK  status: ('A' for Active; 'I' for Inactive)
REMARK    1  A    between atoms: C3_3  and  C6_6 
ROOT
HETATM    1  C1  UNL     1     -32.601   7.378   2.264  1.00 20.00     0.013 C 
HETATM    2  C2  UNL     1     -33.345   6.715   2.934  1.00 20.00    -0.099 C 
HETATM    3  C4  UNL     1     -33.891   4.415   3.571  1.00 20.00     0.038 C 
HETATM    4  C5  UNL     1     -35.702   6.144   3.272  1.00 20.00     0.038 C 
HETATM    5  C6  UNL     1     -34.267   5.893   3.759  1.00 20.00     0.091 C 
ENDROOT
BRANCH   5   6
HETATM    6  C3  UNL     1     -34.124   6.299   5.243  1.00 20.00     0.238 C 
HETATM    7  O7  UNL     1     -33.345   7.178   5.608  1.00 20.00    -0.278 OA
HETATM    8 CL8  UNL     1     -35.158   5.405   6.334  1.00 20.00    -0.042 Cl
ENDBRANCH   5   6
TORSDOF 1
