REMARK  2 active torsions:
REMARK  status: ('A' for Active; 'I' for Inactive)
REMARK    1  A    between atoms: C1_1  and  C4_4 
REMARK    2  A    between atoms: C1_1  and  C5_5 
ROOT
HETATM    1  C1  UNL     1     -33.817   5.165   3.642  1.00 20.00     0.159 C 
HETATM    2  O6  UNL     1     -34.280   4.045   3.818  1.00 20.00    -0.295 OA
ENDROOT
BRANCH   1   3
HETATM    3  C4  UNL     1     -34.172   6.268   4.541  1.00 20.00     0.058 A 
HETATM    4  C2  UNL     1     -33.947   6.116   6.021  1.00 20.00     0.013 A 
HETATM    5  C3  UNL     1     -33.078   7.042   5.225  1.00 20.00     0.013 A 
ENDBRANCH   1   3
BRANCH   1   6
HETATM    6  C5  UNL     1     -32.874   5.506   2.526  1.00 20.00     0.300 C 
HETATM    7  F7  UNL     1     -33.030   6.799   2.131  1.00 20.00    -0.248 F 
ENDBRANCH   1   6
TORSDOF 2
