REMARK  0 active torsions:
REMARK  status: ('A' for Active; 'I' for Inactive)
ROOT
HETATM    1  C1  UNL     1     -35.200   4.821   5.728  1.00 20.00     0.029 C 
HETATM    2  C2  UNL     1     -35.506   5.404   4.371  1.00 20.00     0.042 C 
HETATM    3  C3  UNL     1     -33.201   5.005   3.305  1.00 20.00     0.070 C 
HETATM    4  C4  UNL     1     -32.588   5.776   2.136  1.00 20.00     0.275 C 
HETATM    5  C5  UNL     1     -34.258   7.158   2.988  1.00 20.00     0.309 C 
HETATM    6  C6  UNL     1     -34.259   5.855   6.306  1.00 20.00     0.169 C 
HETATM    7  C7  UNL     1     -34.165   5.998   3.971  1.00 20.00     0.089 C 
HETATM    8  C8  UNL     1     -32.817   8.016   1.231  1.00 20.00     0.310 C 
HETATM    9  N9  UNL     1     -32.909   7.175   2.415  1.00 20.00     0.087 N 
HETATM   10  O10 UNL     1     -33.564   6.455   5.202  1.00 20.00    -0.378 OA
ENDROOT
TORSDOF 0
