REMARK  2 active torsions:
REMARK  status: ('A' for Active; 'I' for Inactive)
REMARK    1  A    between atoms: C1_1  and  C2_2 
REMARK    2  A    between atoms: C2_2  and  C3_3 
ROOT
HETATM    1  C2  UNL     1     -33.239   6.754   3.324  1.00 20.00     0.205 C 
HETATM    2 CL7  UNL     1     -31.781   7.597   3.988  1.00 20.00    -0.092 Cl
HETATM    3 CL8  UNL     1     -32.629   5.241   2.541  1.00 20.00    -0.092 Cl
ENDROOT
BRANCH   1   4
HETATM    4  C1  UNL     1     -33.854   7.665   2.250  1.00 20.00     0.164 C 
HETATM    5 CL6  UNL     1     -32.729   8.106   0.939  1.00 20.00    -0.127 Cl
ENDBRANCH   1   4
BRANCH   1   6
HETATM    6  C3  UNL     1     -34.170   6.361   4.484  1.00 20.00     0.355 C 
HETATM    7  F4  UNL     1     -34.598   7.468   5.145  1.00 20.00    -0.184 F 
HETATM    8  F5  UNL     1     -35.292   5.768   3.993  1.00 20.00    -0.184 F 
HETATM    9 CL9  UNL     1     -33.420   5.259   5.662  1.00 20.00    -0.045 Cl
ENDBRANCH   1   6
TORSDOF 2
