REMARK  0 active torsions:
REMARK  status: ('A' for Active; 'I' for Inactive)
ROOT
HETATM    1  C1  UNL     1     -32.280   7.904   0.704  1.00 20.00     0.012 C 
HETATM    2  C2  UNL     1     -32.583   7.347   1.723  1.00 20.00    -0.113 C 
HETATM    3  C3  UNL     1     -33.780   7.597   3.869  1.00 20.00     0.020 C 
HETATM    4  C4  UNL     1     -34.029   6.967   5.241  1.00 20.00     0.041 C 
HETATM    5  C5  UNL     1     -33.738   5.381   2.664  1.00 20.00     0.052 C 
HETATM    6  C6  UNL     1     -32.955   6.664   2.974  1.00 20.00     0.067 C 
HETATM    7  C7  UNL     1     -34.322   4.758   3.893  1.00 20.00     0.158 A 
HETATM    8  C8  UNL     1     -34.507   5.544   5.172  1.00 20.00     0.084 A 
HETATM    9  C9  UNL     1     -34.648   4.814   6.469  1.00 20.00     0.049 C 
HETATM   10  O10 UNL     1     -35.595   5.320   4.269  1.00 20.00    -0.370 OA
ENDROOT
TORSDOF 0
