REMARK  3 active torsions:
REMARK  status: ('A' for Active; 'I' for Inactive)
REMARK    1  A    between atoms: C1_1  and  C3_3 
REMARK    2  A    between atoms: C2_2  and  C4_4 
REMARK    3  A    between atoms: C5_5  and  C6_6 
ROOT
HETATM    1  C3  UNL     1     -33.584   6.869   3.588  1.00 20.00     0.010 C 
HETATM    2  C5  UNL     1     -33.969   5.686   4.098  1.00 20.00    -0.017 C 
HETATM    3  C7  UNL     1     -34.063   4.370   3.392  1.00 20.00     0.052 C 
ENDROOT
BRANCH   1   4
HETATM    4  C1  UNL     1     -33.216   7.123   2.210  1.00 20.00     0.004 C 
HETATM    5  C2  UNL     1     -32.842   8.334   1.777  1.00 20.00     0.041 C 
BRANCH   5   6
HETATM    6  C4  UNL     1     -32.487   8.509   0.355  1.00 20.00     0.258 C 
HETATM    7  O9  UNL     1     -32.138   9.592  -0.097  1.00 20.00    -0.302 OA
ENDBRANCH   5   6
ENDBRANCH   1   4
BRANCH   2   8
HETATM    8  C6  UNL     1     -34.303   5.693   5.557  1.00 20.00     0.151 C 
HETATM    9  C8  UNL     1     -33.576   6.683   6.430  1.00 20.00     0.096 C 
HETATM   10  O10 UNL     1     -35.150   4.932   6.021  1.00 20.00    -0.293 OA
ENDBRANCH   2   8
TORSDOF 3
