REMARK  2 active torsions:
REMARK  status: ('A' for Active; 'I' for Inactive)
REMARK    1  A    between atoms: C4_4  and  C8_8 
REMARK    2  A    between atoms: C9_9  and  O11_11 
ROOT
HETATM    1  C1  UNL     1     -33.777   5.337   3.068  1.00 20.00    -0.079 C 
HETATM    2  C2  UNL     1     -33.112   4.466   2.291  1.00 20.00     0.015 C 
HETATM    3  C5  UNL     1     -34.899   4.857   3.960  1.00 20.00     0.065 C 
HETATM    4  C6  UNL     1     -33.220   7.185   4.655  1.00 20.00     0.016 C 
HETATM    5  C7  UNL     1     -34.343   6.715   5.581  1.00 20.00     0.033 C 
HETATM    6  C8  UNL     1     -33.503   6.831   3.183  1.00 20.00     0.041 C 
HETATM    7  C9  UNL     1     -34.624   5.221   5.419  1.00 20.00     0.122 C 
ENDROOT
BRANCH   6   8
HETATM    8  C4  UNL     1     -32.406   7.352   2.300  1.00 20.00    -0.085 C 
HETATM    9  C3  UNL     1     -31.133   7.420   2.717  1.00 20.00     0.014 C 
HETATM   10  C10 UNL     1     -32.815   7.793   0.926  1.00 20.00     0.043 C 
ENDBRANCH   6   8
BRANCH   7  11
HETATM   11  O11 UNL     1     -35.762   4.864   6.198  1.00 20.00    -0.395 OA
HETATM   12  H27 UNL     1     -35.558   5.106   7.115  1.00 20.00     0.210 HD
ENDBRANCH   7  11
TORSDOF 2
