REMARK  1 active torsions:
REMARK  status: ('A' for Active; 'I' for Inactive)
REMARK    1  A    between atoms: C2_2  and  C6_6 
ROOT
HETATM    1  C3  UNL     1     -33.828   7.021   5.411  1.00 20.00     0.181 C 
HETATM    2  C4  UNL     1     -35.497   5.543   4.262  1.00 20.00     0.181 C 
HETATM    3  C5  UNL     1     -34.480   4.942   6.294  1.00 20.00     0.337 C 
HETATM    4  C6  UNL     1     -34.437   6.631   4.060  1.00 20.00     0.061 C 
HETATM    5  O8  UNL     1     -33.405   5.865   6.135  1.00 20.00    -0.366 OA
HETATM    6  O9  UNL     1     -34.983   4.466   5.048  1.00 20.00    -0.366 OA
ENDROOT
BRANCH   4   7
HETATM    7  C2  UNL     1     -33.371   6.167   3.108  1.00 20.00    -0.085 C 
HETATM    8  C1  UNL     1     -33.392   4.942   2.562  1.00 20.00     0.014 C 
HETATM    9  C7  UNL     1     -32.282   7.153   2.803  1.00 20.00     0.043 C 
ENDBRANCH   4   7
TORSDOF 1
