REMARK  0 active torsions:
REMARK  status: ('A' for Active; 'I' for Inactive)
ROOT
HETATM    1  C1  UNL     1     -34.865   5.847   5.945  1.00 20.00     0.027 C 
HETATM    2  C2  UNL     1     -34.018   7.100   5.691  1.00 20.00     0.012 C 
HETATM    3  C3  UNL     1     -34.339   4.588   5.273  1.00 20.00     0.167 C 
HETATM    4  C4  UNL     1     -33.724   4.328   2.980  1.00 20.00     0.177 C 
HETATM    5  C5  UNL     1     -33.905   7.542   4.232  1.00 20.00     0.074 C 
HETATM    6  C6  UNL     1     -33.327   5.618   2.275  1.00 20.00     0.100 C 
HETATM    7  O7  UNL     1     -34.768   4.568   3.915  1.00 20.00    -0.390 OA
HETATM    8  S8  UNL     1     -32.476   6.800   3.369  1.00 20.00    -0.167 SA
ENDROOT
TORSDOF 0
