REMARK  4 active torsions:
REMARK  status: ('A' for Active; 'I' for Inactive)
REMARK    1  A    between atoms: C1_1  and  C7_7 
REMARK    2  A    between atoms: C1_1  and  C8_8 
REMARK    3  A    between atoms: C5_5  and  C6_6 
REMARK    4  A    between atoms: C6_6  and  C8_8 
ROOT
HETATM    1  C1  UNL     1     -33.791   5.835   3.461  1.00 20.00     0.148 C 
HETATM    2  O9  UNL     1     -33.820   4.880   2.682  1.00 20.00    -0.296 OA
ENDROOT
BRANCH   1   3
HETATM    3  C7  UNL     1     -34.248   5.707   4.913  1.00 20.00     0.049 C 
HETATM    4  C3  UNL     1     -33.535   6.720   5.805  1.00 20.00     0.017 C 
HETATM    5  C4  UNL     1     -34.009   4.286   5.409  1.00 20.00     0.017 C 
ENDBRANCH   1   3
BRANCH   1   6
HETATM    6  C8  UNL     1     -33.303   7.206   3.014  1.00 20.00     0.152 C 
HETATM    7 CL10 UNL     1     -31.572   7.295   3.445  1.00 20.00    -0.117 Cl
BRANCH   6   8
HETATM    8  C6  UNL     1     -33.482   7.414   1.510  1.00 20.00     0.027 C 
BRANCH   8   9
HETATM    9  C5  UNL     1     -33.035   8.811   1.066  1.00 20.00    -0.003 C 
HETATM   10  C2  UNL     1     -33.280   9.026  -0.419  1.00 20.00     0.005 C 
ENDBRANCH   8   9
ENDBRANCH   6   8
ENDBRANCH   1   6
TORSDOF 4
