REMARK  2 active torsions:
REMARK  status: ('A' for Active; 'I' for Inactive)
REMARK    1  A    between atoms: C6_6  and  C8_8 
REMARK    2  A    between atoms: C7_7  and  C9_9 
ROOT
HETATM    1  C1  UNL     1     -33.971   5.638   5.979  1.00 20.00     0.005 C 
HETATM    2  C2  UNL     1     -34.559   4.439   5.197  1.00 20.00     0.005 C 
HETATM    3  C5  UNL     1     -35.644   6.346   4.407  1.00 20.00     0.010 C 
HETATM    4  C6  UNL     1     -34.374   6.852   5.125  1.00 20.00    -0.010 C 
HETATM    5  C7  UNL     1     -34.946   5.101   3.850  1.00 20.00    -0.010 C 
ENDROOT
BRANCH   4   6
HETATM    6  C8  UNL     1     -33.512   7.023   3.877  1.00 20.00    -0.006 C 
HETATM    7  C3  UNL     1     -32.116   7.052   3.203  1.00 20.00     0.006 C 
HETATM    8  C4  UNL     1     -32.871   6.245   2.054  1.00 20.00     0.006 C 
HETATM    9  C9  UNL     1     -33.605   5.573   3.253  1.00 20.00    -0.006 C 
ENDBRANCH   4   6
TORSDOF 2
