REMARK  1 active torsions:
REMARK  status: ('A' for Active; 'I' for Inactive)
REMARK    1  A    between atoms: C7_7  and  O10_10 
ROOT
HETATM    1  C1  UNL     1     -33.810   8.212   1.306  1.00 20.00     0.013 C 
HETATM    2  C2  UNL     1     -33.601   7.524   2.267  1.00 20.00    -0.102 C 
HETATM    3  C3  UNL     1     -33.837   5.297   3.533  1.00 20.00    -0.040 C 
HETATM    4  C4  UNL     1     -33.493   4.264   2.754  1.00 20.00     0.019 C 
HETATM    5  C5  UNL     1     -34.266   6.299   5.683  1.00 20.00     0.043 C 
HETATM    6  C6  UNL     1     -32.193   7.102   4.311  1.00 20.00     0.034 A 
HETATM    7  C7  UNL     1     -34.722   5.164   4.751  1.00 20.00     0.148 C 
HETATM    8  C8  UNL     1     -33.602   7.312   4.787  1.00 20.00     0.015 A 
HETATM    9  C9  UNL     1     -33.350   6.699   3.421  1.00 20.00     0.052 A 
ENDROOT
BRANCH   7  10
HETATM   10  O10 UNL     1     -36.072   5.382   4.354  1.00 20.00    -0.391 OA
HETATM   11  H20 UNL     1     -36.615   5.291   5.153  1.00 20.00     0.210 HD
ENDBRANCH   7  10
TORSDOF 1
