REMARK  1 active torsions:
REMARK  status: ('A' for Active; 'I' for Inactive)
REMARK    1  A    between atoms: C1_1  and  C8_8 
ROOT
HETATM    1  C1  UNL     1     -33.089   6.275   2.588  1.00 20.00     0.069 C 
HETATM    2  C2  UNL     1     -33.673   4.259   3.435  1.00 20.00     0.169 C 
HETATM    3  C3  UNL     1     -34.385   5.171   4.444  1.00 20.00     0.025 C 
HETATM    4  C4  UNL     1     -34.223   4.675   5.879  1.00 20.00     0.029 C 
HETATM    5  C5  UNL     1     -35.866   5.354   4.097  1.00 20.00     0.029 C 
HETATM    6  N9  UNL     1     -33.242   5.037   2.253  1.00 20.00    -0.285 NA
HETATM    7  S10 UNL     1     -33.511   6.750   4.210  1.00 20.00    -0.104 SA
ENDROOT
BRANCH   1   8
HETATM    8  C8  UNL     1     -32.609   7.328   1.648  1.00 20.00     0.036 C 
HETATM    9  C6  UNL     1     -32.300   6.724   0.278  1.00 20.00     0.016 C 
HETATM   10  C7  UNL     1     -33.632   8.458   1.519  1.00 20.00     0.016 C 
ENDBRANCH   1   8
TORSDOF 1
