REMARK  5 active torsions:
REMARK  status: ('A' for Active; 'I' for Inactive)
REMARK    1  A    between atoms: C1_1  and  O9_9 
REMARK    2  A    between atoms: C5_5  and  C6_6 
REMARK    3  A    between atoms: C6_6  and  C7_7 
REMARK    4  A    between atoms: C7_7  and  C8_8 
REMARK    5  A    between atoms: C8_8  and  O9_9 
ROOT
HETATM    1  C4  UNL     1     -32.856   4.904   1.868  1.00 20.00     0.040 C 
HETATM    2  C8  UNL     1     -33.341   6.327   2.107  1.00 20.00     0.125 C 
ENDROOT
BRANCH   2   3
HETATM    3  C7  UNL     1     -32.761   7.350   1.125  1.00 20.00     0.032 C 
BRANCH   3   4
HETATM    4  C6  UNL     1     -33.214   8.785   1.401  1.00 20.00     0.002 C 
BRANCH   4   5
HETATM    5  C5  UNL     1     -32.577   9.765   0.414  1.00 20.00    -0.004 C 
HETATM    6  C3  UNL     1     -32.999  11.197   0.702  1.00 20.00     0.005 C 
ENDBRANCH   4   5
ENDBRANCH   3   4
ENDBRANCH   2   3
BRANCH   2   7
HETATM    7  O9  UNL     1     -32.970   6.713   3.431  1.00 20.00    -0.340 OA
BRANCH   7   8
HETATM    8  C1  UNL     1     -33.667   6.282   4.504  1.00 20.00     0.109 C 
HETATM    9  C2  UNL     1     -34.352   4.953   4.453  1.00 20.00     0.089 C 
HETATM   10  S10 UNL     1     -33.710   7.291   5.829  1.00 20.00    -0.058 SA
ENDBRANCH   7   8
ENDBRANCH   2   7
TORSDOF 5
