REMARK  0 active torsions:
REMARK  status: ('A' for Active; 'I' for Inactive)
ROOT
HETATM    1  C1  UNL     1     -32.799   6.912   2.555  1.00 20.00     0.175 C 
HETATM    2  C2  UNL     1     -33.934   4.754   3.914  1.00 20.00     0.175 C 
HETATM    3  C3  UNL     1     -35.359   7.139   3.644  1.00 20.00     0.175 C 
HETATM    4  C4  UNL     1     -33.133   7.026   5.323  1.00 20.00     0.175 C 
HETATM    5  S5  UNL     1     -32.852   5.101   2.501  1.00 20.00    -0.117 SA
HETATM    6  S6  UNL     1     -34.399   7.691   2.208  1.00 20.00    -0.117 SA
HETATM    7  S7  UNL     1     -35.632   5.347   3.685  1.00 20.00    -0.117 SA
HETATM    8  S8  UNL     1     -31.980   7.569   4.033  1.00 20.00    -0.117 SA
HETATM    9  S9  UNL     1     -33.213   5.225   5.509  1.00 20.00    -0.117 SA
HETATM   10  S10 UNL     1     -34.762   7.815   5.216  1.00 20.00    -0.117 SA
ENDROOT
TORSDOF 0
