REMARK  2 active torsions:
REMARK  status: ('A' for Active; 'I' for Inactive)
REMARK    1  A    between atoms: C7_7  and  C9_9 
REMARK    2  A    between atoms: C8_8  and  C10_10 
ROOT
HETATM    1  C1  UNL     1     -35.652   5.743   4.145  1.00 20.00     0.005 C 
HETATM    2  C2  UNL     1     -35.345   7.198   4.522  1.00 20.00     0.005 C 
HETATM    3  C3  UNL     1     -34.075   4.951   5.910  1.00 20.00     0.005 C 
HETATM    4  C4  UNL     1     -33.765   6.415   6.287  1.00 20.00     0.005 C 
HETATM    5  C7  UNL     1     -34.431   4.848   4.412  1.00 20.00    -0.010 C 
HETATM    6  C8  UNL     1     -33.908   7.327   5.050  1.00 20.00    -0.010 C 
ENDROOT
BRANCH   5   7
HETATM    7  C9  UNL     1     -33.204   5.352   3.630  1.00 20.00    -0.006 A 
HETATM    8  C5  UNL     1     -33.294   5.757   2.143  1.00 20.00     0.006 A 
HETATM    9  C6  UNL     1     -32.991   7.216   2.517  1.00 20.00     0.006 A 
HETATM   10  C10 UNL     1     -32.895   6.820   4.006  1.00 20.00    -0.006 A 
ENDBRANCH   5   7
TORSDOF 2
