REMARK  1 active torsions:
REMARK  status: ('A' for Active; 'I' for Inactive)
REMARK    1  A    between atoms: C4_4  and  O11_11 
ROOT
HETATM    1  C1  UNL     1     -34.109   5.132   5.755  1.00 20.00    -0.021 C 
HETATM    2  C2  UNL     1     -34.353   4.055   4.989  1.00 20.00    -0.025 C 
HETATM    3  C3  UNL     1     -33.477   6.448   3.786  1.00 20.00    -0.043 C 
HETATM    4  C4  UNL     1     -32.583   7.418   3.578  1.00 20.00     0.045 C 
HETATM    5  C5  UNL     1     -33.734   5.246   2.885  1.00 20.00     0.046 C 
HETATM    6  C6  UNL     1     -35.664   5.778   4.173  1.00 20.00     0.022 C 
HETATM    7  C7  UNL     1     -34.464   6.352   4.936  1.00 20.00     0.040 C 
HETATM    8  C8  UNL     1     -34.884   4.560   3.662  1.00 20.00     0.013 C 
HETATM    9  C9  UNL     1     -32.381   8.574   4.506  1.00 20.00     0.076 C 
ENDROOT
BRANCH   4  10
HETATM   10  O11 UNL     1     -31.777   7.392   2.455  1.00 20.00    -0.360 OA
HETATM   11  C10 UNL     1     -32.353   8.064   1.363  1.00 20.00     0.209 C 
ENDBRANCH   4  10
TORSDOF 1
