REMARK  0 active torsions:
REMARK  status: ('A' for Active; 'I' for Inactive)
ROOT
HETATM    1  C1  UNL     1     -35.161   5.204   5.744  1.00 20.00     0.010 A 
HETATM    2  C2  UNL     1     -34.308   4.271   4.928  1.00 20.00     0.010 A 
HETATM    3  C3  UNL     1     -32.539   6.288   2.159  1.00 20.00     0.010 A 
HETATM    4  C4  UNL     1     -32.944   7.733   2.271  1.00 20.00     0.010 A 
HETATM    5  C5  UNL     1     -34.906   6.324   3.357  1.00 20.00     0.019 C 
HETATM    6  C6  UNL     1     -33.238   6.688   4.687  1.00 20.00     0.019 C 
HETATM    7  C7  UNL     1     -34.361   5.731   4.596  1.00 20.00    -0.038 A 
HETATM    8  C8  UNL     1     -33.489   6.725   3.231  1.00 20.00    -0.038 A 
ENDROOT
TORSDOF 0
