REMARK  0 active torsions:
REMARK  status: ('A' for Active; 'I' for Inactive)
ROOT
HETATM    1  C1  UNL     1     -32.832   6.742   2.251  1.00 20.00     0.128 A 
HETATM    2  C2  UNL     1     -33.666   7.109   3.500  1.00 20.00     0.089 A 
HETATM    3  C3  UNL     1     -32.930   5.229   2.549  1.00 20.00     0.089 A 
HETATM    4  C4  UNL     1     -33.291   5.106   5.119  1.00 20.00     0.085 C 
HETATM    5  C5  UNL     1     -35.169   5.013   3.848  1.00 20.00     0.085 C 
HETATM    6  C6  UNL     1     -33.769   5.606   3.762  1.00 20.00    -0.011 A 
HETATM    7  O7  UNL     1     -32.303   7.393   1.374  1.00 20.00    -0.298 OA
HETATM    8  S8  UNL     1     -35.036   5.038   5.676  1.00 20.00    -0.167 SA
ENDROOT
TORSDOF 0
