REMARK  0 active torsions:
REMARK  status: ('A' for Active; 'I' for Inactive)
ROOT
HETATM    1  C1  UNL     1     -32.499   8.561   2.795  1.00 20.00     0.004 A 
HETATM    2  C2  UNL     1     -32.442   7.608   1.763  1.00 20.00     0.034 A 
HETATM    3  C3  UNL     1     -32.969   8.231   4.073  1.00 20.00     0.021 A 
HETATM    4  C4  UNL     1     -33.394   4.220   2.035  1.00 20.00     0.210 A 
HETATM    5  C5  UNL     1     -32.867   6.300   2.045  1.00 20.00     0.086 A 
HETATM    6  C6  UNL     1     -33.323   6.015   3.321  1.00 20.00     0.081 A 
HETATM    7  C7  UNL     1     -33.405   6.936   4.361  1.00 20.00     0.029 A 
HETATM    8  C8  UNL     1     -34.145   3.976   4.446  1.00 20.00     0.140 C 
HETATM    9  C9  UNL     1     -34.941   4.889   5.388  1.00 20.00     0.100 C 
HETATM   10  N10 UNL     1     -32.921   5.171   1.254  1.00 20.00    -0.242 NA
HETATM   11  N11 UNL     1     -33.646   4.687   3.288  1.00 20.00    -0.338 N 
HETATM   12  S12 UNL     1     -34.008   6.384   5.929  1.00 20.00    -0.126 SA
ENDROOT
TORSDOF 0
