REMARK  0 active torsions:
REMARK  status: ('A' for Active; 'I' for Inactive)
ROOT
HETATM    1  C1  UNL     1     -33.163   7.114   5.175  1.00 20.00     0.141 C 
HETATM    2  C2  UNL     1     -33.747   6.787   6.536  1.00 20.00     0.079 C 
HETATM    3  C3  UNL     1     -34.390   5.407   6.541  1.00 20.00     0.008 C 
HETATM    4  C4  UNL     1     -35.351   5.206   5.364  1.00 20.00     0.017 C 
HETATM    5  C5  UNL     1     -32.228   6.110   2.091  1.00 20.00     0.085 C 
HETATM    6  C6  UNL     1     -32.916   4.760   1.994  1.00 20.00     0.084 C 
HETATM    7  C7  UNL     1     -34.114   6.918   4.001  1.00 20.00     0.130 C 
HETATM    8  C8  UNL     1     -34.709   5.503   3.994  1.00 20.00     0.068 C 
HETATM    9  O9  UNL     1     -32.032   7.585   5.076  1.00 20.00    -0.297 OA
HETATM   10  S10 UNL     1     -33.393   7.463   2.421  1.00 20.00    -0.155 SA
HETATM   11  S11 UNL     1     -33.499   4.178   3.607  1.00 20.00    -0.162 SA
ENDROOT
TORSDOF 0
