REMARK  0 active torsions:
REMARK  status: ('A' for Active; 'I' for Inactive)
ROOT
HETATM    1  C1  UNL     1     -33.186   7.396   2.213  1.00 20.00     0.411 C 
HETATM    2  C2  UNL     1     -32.874   5.440   3.257  1.00 20.00     0.368 C 
HETATM    3  C3  UNL     1     -33.910   6.235   4.004  1.00 20.00     0.199 C 
HETATM    4  C4  UNL     1     -33.363   6.923   5.251  1.00 20.00     0.070 C 
HETATM    5  O5  UNL     1     -33.071   8.294   1.393  1.00 20.00    -0.229 OA
HETATM    6  O6  UNL     1     -32.254   6.417   2.434  1.00 20.00    -0.257 OA
HETATM    7  O7  UNL     1     -34.262   7.230   3.043  1.00 20.00    -0.265 OA
HETATM    8  F8  UNL     1     -33.448   4.538   2.422  1.00 20.00    -0.214 F 
HETATM    9 CL9  UNL     1     -35.338   5.265   4.417  1.00 20.00    -0.082 Cl
ENDROOT
TORSDOF 0
