REMARK  0 active torsions:
REMARK  status: ('A' for Active; 'I' for Inactive)
ROOT
HETATM    1  C1  UNL     1     -34.307   6.605   5.382  1.00 20.00     0.080 A 
HETATM    2  C2  UNL     1     -34.319   6.998   3.939  1.00 20.00     0.207 A 
HETATM    3  C3  UNL     1     -35.047   5.759   4.374  1.00 20.00     0.128 A 
HETATM    4  F4  UNL     1     -33.136   6.856   3.234  1.00 20.00    -0.246 F 
HETATM    5 CL5  UNL     1     -34.363   4.193   3.954  1.00 20.00    -0.103 Cl
HETATM    6 BR6  UNL     1     -36.959   5.811   4.397  1.00 20.00    -0.065 Br
ENDROOT
TORSDOF 0
