REMARK  4 active torsions:
REMARK  status: ('A' for Active; 'I' for Inactive)
REMARK    1  A    between atoms: C2_2  and  C9_9 
REMARK    2  A    between atoms: C7_7  and  C8_8 
REMARK    3  A    between atoms: C8_8  and  C9_9 
REMARK    4  A    between atoms: C9_9  and  O11_11 
ROOT
HETATM    1  C3  UNL     1     -32.950   6.788   4.843  1.00 20.00     0.031 C 
HETATM    2  C4  UNL     1     -34.442   5.021   3.871  1.00 20.00     0.031 C 
HETATM    3  C5  UNL     1     -33.617   6.513   6.185  1.00 20.00     0.168 C 
HETATM    4  C6  UNL     1     -35.025   4.844   5.267  1.00 20.00     0.168 C 
HETATM    5  C7  UNL     1     -33.895   6.441   3.688  1.00 20.00    -0.008 C 
HETATM    6  O10 UNL     1     -34.054   5.156   6.265  1.00 20.00    -0.391 OA
ENDROOT
BRANCH   5   7
HETATM    7  C8  UNL     1     -33.196   6.592   2.340  1.00 20.00     0.040 C 
BRANCH   7   8
HETATM    8  C9  UNL     1     -32.764   8.031   2.039  1.00 20.00     0.140 C 
BRANCH   8   9
HETATM    9  C2  UNL     1     -32.596   8.295   0.572  1.00 20.00    -0.006 C 
HETATM   10  C1  UNL     1     -33.236   9.265  -0.091  1.00 20.00     0.009 C 
ENDBRANCH   8   9
BRANCH   8  11
HETATM   11  O11 UNL     1     -31.498   8.260   2.659  1.00 20.00    -0.392 OA
HETATM   12  H27 UNL     1     -31.270   9.184   2.482  1.00 20.00     0.210 HD
ENDBRANCH   8  11
ENDBRANCH   7   8
ENDBRANCH   5   7
TORSDOF 4
