REMARK  0 active torsions:
REMARK  status: ('A' for Active; 'I' for Inactive)
ROOT
HETATM    1  C1  UNL     1     -34.045   6.249   6.175  1.00 20.00     0.128 C 
HETATM    2  C2  UNL     1     -34.754   4.940   6.083  1.00 20.00     0.234 C 
HETATM    3  N3  UNL     1     -33.776   6.886   5.088  1.00 20.00    -0.203 NA
HETATM    4  O4  UNL     1     -34.808   4.654   4.696  1.00 20.00    -0.295 OA
HETATM    5  S5  UNL     1     -34.353   5.984   3.800  1.00 20.00     0.137 SA
ENDROOT
TORSDOF 0
