REMARK  0 active torsions:
REMARK  status: ('A' for Active; 'I' for Inactive)
ROOT
HETATM    1  C1  UNL     1     -34.220   5.214   3.547  1.00 20.00    -0.081 C 
HETATM    2  C2  UNL     1     -33.917   4.242   2.669  1.00 20.00     0.015 C 
HETATM    3  C3  UNL     1     -35.480   5.069   4.378  1.00 20.00     0.034 C 
HETATM    4  C4  UNL     1     -35.145   5.042   5.867  1.00 20.00     0.004 C 
HETATM    5  C5  UNL     1     -34.283   6.231   6.283  1.00 20.00     0.001 C 
HETATM    6  C6  UNL     1     -32.859   8.160   1.425  1.00 20.00     0.000 C 
HETATM    7  C7  UNL     1     -34.230   8.069   2.079  1.00 20.00     0.001 C 
HETATM    8  C8  UNL     1     -32.053   6.889   1.652  1.00 20.00     0.001 C 
HETATM    9  C9  UNL     1     -33.039   6.365   5.401  1.00 20.00     0.014 C 
HETATM   10  C10 UNL     1     -34.102   7.773   3.572  1.00 20.00     0.014 C 
HETATM   11  C11 UNL     1     -31.975   6.506   3.134  1.00 20.00     0.014 C 
HETATM   12  C12 UNL     1     -33.347   6.444   3.875  1.00 20.00    -0.018 C 
ENDROOT
TORSDOF 0
