REMARK  1 active torsions:
REMARK  status: ('A' for Active; 'I' for Inactive)
REMARK    1  A    between atoms: C9_9  and  O10_10 
ROOT
HETATM    1  C1  UNL     1     -32.834   6.405   1.271  1.00 20.00     0.053 A 
HETATM    2  C2  UNL     1     -33.532   7.953   3.533  1.00 20.00     0.055 A 
HETATM    3  C3  UNL     1     -33.319   5.809   2.423  1.00 20.00    -0.046 A 
HETATM    4  C4  UNL     1     -33.666   6.574   3.544  1.00 20.00    -0.020 A 
HETATM    5  C5  UNL     1     -32.709   7.796   1.248  1.00 20.00     0.155 A 
HETATM    6  C6  UNL     1     -33.056   8.564   2.371  1.00 20.00     0.155 A 
HETATM    7  C7  UNL     1     -33.504   4.348   2.694  1.00 20.00     0.042 C 
HETATM    8  C8  UNL     1     -34.439   4.391   3.910  1.00 20.00     0.041 C 
HETATM    9  C9  UNL     1     -34.110   5.687   4.668  1.00 20.00     0.152 C 
HETATM   10  F11 UNL     1     -32.247   8.404   0.148  1.00 20.00    -0.203 F 
HETATM   11  F12 UNL     1     -32.919   9.896   2.330  1.00 20.00    -0.203 F 
ENDROOT
BRANCH   9  12
HETATM   12  O10 UNL     1     -35.254   6.195   5.325  1.00 20.00    -0.391 OA
HETATM   13  H20 UNL     1     -35.479   5.569   6.036  1.00 20.00     0.210 HD
ENDBRANCH   9  12
TORSDOF 1
