REMARK  1 active torsions:
REMARK  status: ('A' for Active; 'I' for Inactive)
REMARK    1  A    between atoms: C2_2  and  C4_4 
ROOT
HETATM    1  C1  UNL     1     -34.173   6.547   4.245  1.00 20.00    -0.010 C 
HETATM    2  C2  UNL     1     -33.335   6.096   3.297  1.00 20.00     0.021 C 
HETATM    3  C3  UNL     1     -35.266   5.781   4.917  1.00 20.00     0.037 C 
HETATM    4 CL5  UNL     1     -33.457   4.431   2.802  1.00 20.00    -0.088 Cl
ENDROOT
BRANCH   2   5
HETATM    5  C4  UNL     1     -32.241   6.864   2.626  1.00 20.00     0.165 C 
HETATM    6 CL6  UNL     1     -32.854   7.668   1.164  1.00 20.00    -0.125 Cl
ENDBRANCH   2   5
TORSDOF 1
