REMARK  2 active torsions:
REMARK  status: ('A' for Active; 'I' for Inactive)
REMARK    1  A    between atoms: C1_1  and  C2_2 
REMARK    2  A    between atoms: C1_1  and  C3_3 
ROOT
HETATM    1  C1  UNL     1     -33.766   6.956   3.856  1.00 20.00     0.346 C 
HETATM    2  F4  UNL     1     -32.620   7.271   4.534  1.00 20.00    -0.234 F 
ENDROOT
BRANCH   1   3
HETATM    3  C2  UNL     1     -33.364   6.356   2.515  1.00 20.00     0.357 C 
HETATM    4  F5  UNL     1     -34.458   6.089   1.762  1.00 20.00    -0.184 F 
HETATM    5  F6  UNL     1     -32.720   5.178   2.708  1.00 20.00    -0.184 F 
HETATM    6 CL9  UNL     1     -32.303   7.456   1.612  1.00 20.00    -0.045 Cl
ENDBRANCH   1   3
BRANCH   1   7
HETATM    7  C3  UNL     1     -34.564   6.029   4.764  1.00 20.00     0.357 C 
HETATM    8  F7  UNL     1     -34.748   6.648   5.961  1.00 20.00    -0.184 F 
HETATM    9  F8  UNL     1     -33.849   4.904   5.019  1.00 20.00    -0.184 F 
HETATM   10 CL10 UNL     1     -36.148   5.590   4.106  1.00 20.00    -0.045 Cl
ENDBRANCH   1   7
TORSDOF 2
