REMARK  2 active torsions:
REMARK  status: ('A' for Active; 'I' for Inactive)
REMARK    1  A    between atoms: C2_2  and  C5_5 
REMARK    2  A    between atoms: C5_5  and  C6_6 
ROOT
HETATM    1  C5  UNL     1     -32.578   6.230   2.722  1.00 20.00     0.042 C 
ENDROOT
BRANCH   1   2
HETATM    2  C2  UNL     1     -32.681   7.591   2.091  1.00 20.00    -0.030 C 
HETATM    3  C1  UNL     1     -32.700   7.801   0.766  1.00 20.00    -0.035 C 
HETATM    4  C3  UNL     1     -32.797   9.152   0.140  1.00 20.00     0.036 C 
ENDBRANCH   1   2
BRANCH   1   5
HETATM    5  C6  UNL     1     -33.777   5.898   3.615  1.00 20.00     0.057 C 
HETATM    6  C4  UNL     1     -33.861   4.407   3.912  1.00 20.00     0.022 C 
HETATM    7 BR7  UNL     1     -33.618   6.848   5.326  1.00 20.00    -0.091 Br
ENDBRANCH   1   5
TORSDOF 2
