REMARK  1 active torsions:
REMARK  status: ('A' for Active; 'I' for Inactive)
REMARK    1  A    between atoms: C4_4  and  C9_9 
ROOT
HETATM    1  C1  UNL     1     -34.513   5.748   4.917  1.00 20.00    -0.089 C 
HETATM    2  C2  UNL     1     -34.451   5.870   6.250  1.00 20.00     0.014 C 
HETATM    3  C5  UNL     1     -34.891   4.457   4.240  1.00 20.00     0.033 C 
HETATM    4  C6  UNL     1     -34.187   6.886   3.983  1.00 20.00     0.042 C 
HETATM    5  C7  UNL     1     -33.824   4.045   3.226  1.00 20.00     0.005 C 
HETATM    6  C8  UNL     1     -33.511   5.173   2.239  1.00 20.00     0.009 C 
HETATM    7  C9  UNL     1     -33.111   6.466   2.968  1.00 20.00     0.017 C 
ENDROOT
BRANCH   7   8
HETATM    8  C4  UNL     1     -32.849   7.562   1.981  1.00 20.00    -0.089 C 
HETATM    9  C3  UNL     1     -33.521   8.722   2.014  1.00 20.00     0.014 C 
HETATM   10  C10 UNL     1     -31.791   7.287   0.954  1.00 20.00     0.043 C 
ENDBRANCH   7   8
TORSDOF 1
