REMARK  3 active torsions:
REMARK  status: ('A' for Active; 'I' for Inactive)
REMARK    1  A    between atoms: C1_1  and  C7_7 
REMARK    2  A    between atoms: C2_2  and  C8_8 
REMARK    3  A    between atoms: C8_8  and  C9_9 
ROOT
HETATM    1  C1  UNL     1     -32.093   7.457   2.368  1.00 20.00     0.157 A 
HETATM    2  C2  UNL     1     -32.667   6.654   3.510  1.00 20.00     0.185 A 
HETATM    3  O10 UNL     1     -32.405   6.065   2.229  1.00 20.00    -0.372 OA
ENDROOT
BRANCH   2   4
HETATM    4  C8  UNL     1     -34.111   6.697   3.897  1.00 20.00     0.204 C 
HETATM    5  F11 UNL     1     -34.750   5.660   3.287  1.00 20.00    -0.246 F 
BRANCH   4   6
HETATM    6  C9  UNL     1     -34.354   6.619   5.413  1.00 20.00     0.014 C 
HETATM    7  C5  UNL     1     -33.341   7.441   6.213  1.00 20.00     0.012 C 
HETATM    8  C6  UNL     1     -34.302   5.160   5.874  1.00 20.00     0.012 C 
ENDBRANCH   4   6
ENDBRANCH   2   4
BRANCH   1   9
HETATM    9  C7  UNL     1     -32.909   8.366   1.521  1.00 20.00     0.009 C 
HETATM   10  C3  UNL     1     -33.098   9.750   2.174  1.00 20.00     0.012 C 
HETATM   11  C4  UNL     1     -32.298   8.553   0.118  1.00 20.00     0.012 C 
ENDBRANCH   1   9
TORSDOF 3
