REMARK  0 active torsions:
REMARK  status: ('A' for Active; 'I' for Inactive)
ROOT
HETATM    1  C1  UNL     1     -34.690   5.621   6.286  1.00 20.00     0.083 C 
HETATM    2  C2  UNL     1     -33.879   6.142   1.723  1.00 20.00    -0.003 A 
HETATM    3  C3  UNL     1     -32.575   5.761   2.106  1.00 20.00    -0.011 A 
HETATM    4  C4  UNL     1     -33.021   6.916   2.673  1.00 20.00    -0.006 A 
HETATM    5  C5  UNL     1     -34.479   5.123   2.422  1.00 20.00    -0.016 C 
HETATM    6  C6  UNL     1     -34.728   4.771   5.048  1.00 20.00     0.052 C 
HETATM    7  C7  UNL     1     -33.133   4.332   2.196  1.00 20.00     0.023 C 
HETATM    8  C8  UNL     1     -33.142   6.995   5.220  1.00 20.00     0.153 C 
HETATM    9  C9  UNL     1     -33.958   6.960   3.924  1.00 20.00     0.022 C 
HETATM   10  C10 UNL     1     -34.921   5.699   3.872  1.00 20.00     0.007 C 
HETATM   11  N11 UNL     1     -33.972   6.688   6.395  1.00 20.00    -0.305 NA
ENDROOT
TORSDOF 0
