REMARK  0 active torsions:
REMARK  status: ('A' for Active; 'I' for Inactive)
ROOT
HETATM    1  C1  UNL     1     -33.895   6.695   5.589  1.00 20.00     0.141 C 
HETATM    2  C2  UNL     1     -34.911   5.871   6.348  1.00 20.00     0.079 C 
HETATM    3  C3  UNL     1     -34.848   4.419   5.909  1.00 20.00     0.008 C 
HETATM    4  C4  UNL     1     -35.020   4.294   4.398  1.00 20.00     0.017 C 
HETATM    5  C5  UNL     1     -32.837   7.240   1.593  1.00 20.00     0.085 C 
HETATM    6  C6  UNL     1     -32.836   5.777   1.185  1.00 20.00     0.084 C 
HETATM    7  C7  UNL     1     -33.932   6.568   4.062  1.00 20.00     0.130 C 
HETATM    8  C8  UNL     1     -33.935   5.087   3.650  1.00 20.00     0.068 C 
HETATM    9  O9  UNL     1     -33.171   7.485   6.194  1.00 20.00    -0.297 OA
HETATM   10  S10 UNL     1     -32.499   7.465   3.362  1.00 20.00    -0.155 SA
HETATM   11  S11 UNL     1     -34.255   4.868   1.858  1.00 20.00    -0.162 SA
ENDROOT
TORSDOF 0
