REMARK  2 active torsions:
REMARK  status: ('A' for Active; 'I' for Inactive)
REMARK    1  A    between atoms: C7_7  and  C9_9 
REMARK    2  A    between atoms: C8_8  and  C10_10 
ROOT
HETATM    1  C1  UNL     1     -31.710   7.606   3.825  1.00 20.00     0.005 C 
HETATM    2  C2  UNL     1     -32.808   7.232   4.858  1.00 20.00     0.005 C 
HETATM    3  C3  UNL     1     -33.316   7.866   1.947  1.00 20.00     0.005 C 
HETATM    4  C4  UNL     1     -34.367   8.003   3.083  1.00 20.00     0.005 C 
HETATM    5  C7  UNL     1     -32.111   7.034   2.434  1.00 20.00    -0.010 C 
HETATM    6  C8  UNL     1     -34.124   6.880   4.132  1.00 20.00    -0.010 C 
ENDROOT
BRANCH   5   7
HETATM    7  C9  UNL     1     -32.506   5.582   2.739  1.00 20.00    -0.006 C 
HETATM    8  C5  UNL     1     -32.948   4.257   2.057  1.00 20.00     0.006 C 
HETATM    9  C6  UNL     1     -33.809   4.070   3.382  1.00 20.00     0.006 C 
HETATM   10  C10 UNL     1     -33.983   5.611   3.279  1.00 20.00    -0.006 C 
ENDBRANCH   5   7
TORSDOF 2
