REMARK  0 active torsions:
REMARK  status: ('A' for Active; 'I' for Inactive)
ROOT
HETATM    1  C1  UNL     1     -33.192   6.553   3.175  1.00 20.00    -0.064 A 
HETATM    2  C2  UNL     1     -33.030   7.338   2.133  1.00 20.00    -0.084 C 
HETATM    3  C3  UNL     1     -35.085   4.509   4.648  1.00 20.00     0.002 C 
HETATM    4  C4  UNL     1     -34.044   4.189   3.565  1.00 20.00     0.010 C 
HETATM    5  C5  UNL     1     -35.097   6.041   4.766  1.00 20.00     0.014 C 
HETATM    6  C6  UNL     1     -33.012   5.266   3.714  1.00 20.00     0.028 A 
HETATM    7  C7  UNL     1     -33.666   6.443   4.505  1.00 20.00    -0.013 A 
HETATM    8  C8  UNL     1     -33.461   8.789   2.124  1.00 20.00     0.043 C 
HETATM    9  C9  UNL     1     -32.398   6.864   0.841  1.00 20.00     0.043 C 
HETATM   10  C10 UNL     1     -32.912   7.080   5.627  1.00 20.00     0.021 C 
ENDROOT
TORSDOF 0
