REMARK  0 active torsions:
REMARK  status: ('A' for Active; 'I' for Inactive)
ROOT
HETATM    1  C1  UNL     1     -32.967   7.168   5.010  1.00 20.00     0.043 C 
HETATM    2  C2  UNL     1     -34.568   4.637   3.888  1.00 20.00     0.019 C 
HETATM    3  C3  UNL     1     -33.649   5.059   3.010  1.00 20.00     0.114 C 
HETATM    4  C4  UNL     1     -33.734   6.599   5.953  1.00 20.00     0.136 C 
HETATM    5  C5  UNL     1     -33.161   7.242   3.536  1.00 20.00     0.118 C 
HETATM    6  C6  UNL     1     -35.458   5.576   4.636  1.00 20.00     0.203 C 
HETATM    7  N7  UNL     1     -33.436   6.355   2.635  1.00 20.00    -0.273 NA
HETATM    8  O8  UNL     1     -34.891   5.876   5.906  1.00 20.00    -0.359 OA
ENDROOT
TORSDOF 0
