REMARK  0 active torsions:
REMARK  status: ('A' for Active; 'I' for Inactive)
ROOT
HETATM    1  C1  UNL     1     -32.608   7.075   4.027  1.00 20.00     0.062 A 
HETATM    2  C2  UNL     1     -33.287   7.432   2.738  1.00 20.00     0.119 A 
HETATM    3  C3  UNL     1     -33.604   6.123   3.411  1.00 20.00     0.112 A 
HETATM    4 CL4  UNL     1     -32.343   7.522   1.274  1.00 20.00    -0.122 Cl
HETATM    5 CL5  UNL     1     -32.986   4.606   2.765  1.00 20.00    -0.105 Cl
HETATM    6 BR6  UNL     1     -35.317   5.964   4.261  1.00 20.00    -0.066 Br
ENDROOT
TORSDOF 0
