REMARK  0 active torsions:
REMARK  status: ('A' for Active; 'I' for Inactive)
ROOT
HETATM    1  C1  UNL     1     -34.648   5.461   6.366  1.00 20.00    -0.028 C 
HETATM    2  C2  UNL     1     -34.625   6.708   5.878  1.00 20.00    -0.014 C 
HETATM    3  C3  UNL     1     -34.468   4.444   5.283  1.00 20.00     0.043 C 
HETATM    4  C4  UNL     1     -32.359   6.550   2.481  1.00 20.00     0.084 C 
HETATM    5  C5  UNL     1     -32.513   5.041   2.458  1.00 20.00     0.084 C 
HETATM    6  C6  UNL     1     -34.395   6.724   4.389  1.00 20.00     0.083 C 
HETATM    7  C7  UNL     1     -34.805   5.282   4.043  1.00 20.00     0.068 C 
HETATM    8  S8  UNL     1     -32.657   7.225   4.134  1.00 20.00    -0.158 SA
HETATM    9  S9  UNL     1     -34.254   4.545   2.480  1.00 20.00    -0.162 SA
ENDROOT
TORSDOF 0
