REMARK  0 active torsions:
REMARK  status: ('A' for Active; 'I' for Inactive)
ROOT
HETATM    1  C1  UNL     1     -33.103   6.180   6.001  1.00 20.00     0.001 C 
HETATM    2  C2  UNL     1     -34.222   5.152   6.259  1.00 20.00     0.005 C 
HETATM    3  C3  UNL     1     -33.904   3.672   4.166  1.00 20.00     0.005 C 
HETATM    4  C4  UNL     1     -33.471   4.249   2.801  1.00 20.00     0.006 C 
HETATM    5  C5  UNL     1     -33.472   7.222   4.930  1.00 20.00     0.010 C 
HETATM    6  C6  UNL     1     -35.340   5.768   4.116  1.00 20.00     0.014 C 
HETATM    7  C7  UNL     1     -33.802   6.852   2.306  1.00 20.00     0.015 A 
HETATM    8  C8  UNL     1     -34.875   4.584   4.971  1.00 20.00    -0.014 C 
HETATM    9  C9  UNL     1     -33.086   5.690   2.945  1.00 20.00    -0.005 A 
HETATM   10  C10 UNL     1     -34.077   6.511   3.748  1.00 20.00    -0.036 A 
ENDROOT
TORSDOF 0
