REMARK  2 active torsions:
REMARK  status: ('A' for Active; 'I' for Inactive)
REMARK    1  A    between atoms: C1_1  and  C2_2 
REMARK    2  A    between atoms: C1_1  and  C3_3 
ROOT
HETATM    1  C2  UNL     1     -33.055   6.426   3.164  1.00 20.00     0.043 A 
HETATM    2  C4  UNL     1     -33.438   6.545   4.554  1.00 20.00     0.013 A 
HETATM    3  C5  UNL     1     -34.285   5.752   3.566  1.00 20.00    -0.023 A 
HETATM    4  C8  UNL     1     -33.900   7.816   5.181  1.00 20.00     0.012 C 
HETATM    5  C9  UNL     1     -34.230   4.246   3.662  1.00 20.00     0.017 C 
HETATM    6  C10 UNL     1     -35.634   6.274   3.132  1.00 20.00     0.017 C 
ENDROOT
BRANCH   1   7
HETATM    7  C1  UNL     1     -32.984   7.411   2.327  1.00 20.00    -0.159 C 
BRANCH   7   8
HETATM    8  C3  UNL     1     -32.913   8.403   1.481  1.00 20.00     0.022 C 
HETATM    9  C6  UNL     1     -33.230   9.817   1.875  1.00 20.00     0.029 C 
HETATM   10  C7  UNL     1     -32.503   8.209   0.049  1.00 20.00     0.029 C 
ENDBRANCH   7   8
ENDBRANCH   1   7
TORSDOF 2
