REMARK  0 active torsions:
REMARK  status: ('A' for Active; 'I' for Inactive)
ROOT
HETATM    1  C1  UNL     1     -32.691   7.308   3.598  1.00 20.00     0.023 C 
HETATM    2  C2  UNL     1     -34.774   6.819   6.536  1.00 20.00     0.017 A 
HETATM    3  C3  UNL     1     -34.459   4.672   5.248  1.00 20.00     0.012 C 
HETATM    4  C4  UNL     1     -32.589   6.747   2.233  1.00 20.00     0.110 C 
HETATM    5  C5  UNL     1     -33.675   6.722   5.820  1.00 20.00     0.010 A 
HETATM    6  C6  UNL     1     -34.364   5.472   6.328  1.00 20.00    -0.008 A 
HETATM    7  C7  UNL     1     -33.508   6.611   4.387  1.00 20.00    -0.061 C 
HETATM    8  C8  UNL     1     -33.321   4.633   2.945  1.00 20.00     0.158 C 
HETATM    9  C9  UNL     1     -34.215   5.369   3.943  1.00 20.00     0.040 C 
HETATM   10  N10 UNL     1     -32.869   5.540   1.869  1.00 20.00    -0.301 NA
ENDROOT
TORSDOF 0
