REMARK  1 active torsions:
REMARK  status: ('A' for Active; 'I' for Inactive)
REMARK    1  A    between atoms: C1_1  and  C5_5 
ROOT
HETATM    1  C3  UNL     1     -32.814   5.151   2.402  1.00 20.00     0.207 C 
HETATM    2  C4  UNL     1     -33.572   4.409   4.548  1.00 20.00     0.208 C 
HETATM    3  C5  UNL     1     -32.613   6.456   3.181  1.00 20.00     0.267 C 
HETATM    4  C6  UNL     1     -34.458   5.667   4.608  1.00 20.00     0.172 C 
HETATM    5  C8  UNL     1     -35.819   5.401   3.942  1.00 20.00     0.051 C 
HETATM    6  C9  UNL     1     -34.691   6.050   6.078  1.00 20.00     0.051 C 
HETATM    7  N10 UNL     1     -33.844   6.805   3.898  1.00 20.00     0.104 N 
HETATM    8  O11 UNL     1     -33.236   4.052   3.210  1.00 20.00    -0.386 OA
HETATM    9  H28 UNL     1     -33.655   7.559   4.561  1.00 20.00     0.318 HD
ENDROOT
BRANCH   3  10
HETATM   10  C1  UNL     1     -32.209   7.562   2.254  1.00 20.00     0.006 C 
HETATM   11  C2  UNL     1     -33.078   8.383   1.648  1.00 20.00    -0.033 C 
HETATM   12  C7  UNL     1     -32.675   9.485   0.725  1.00 20.00     0.036 C 
ENDBRANCH   3  10
TORSDOF 1
