REMARK  0 active torsions:
REMARK  status: ('A' for Active; 'I' for Inactive)
ROOT
HETATM    1  C1  UNL     1     -35.437   5.748   4.299  1.00 20.00     0.036 A 
HETATM    2  C2  UNL     1     -34.206   5.678   5.175  1.00 20.00    -0.025 A 
HETATM    3  C3  UNL     1     -34.196   5.072   3.764  1.00 20.00     0.041 A 
HETATM    4  C4  UNL     1     -34.237   4.758   6.372  1.00 20.00     0.016 C 
HETATM    5  C5  UNL     1     -33.468   6.968   5.447  1.00 20.00     0.016 C 
HETATM    6  C6  UNL     1     -34.220   3.583   3.557  1.00 20.00     0.033 C 
HETATM    7 CL7  UNL     1     -33.309   5.932   2.476  1.00 20.00    -0.119 Cl
ENDROOT
TORSDOF 0
