REMARK  0 active torsions:
REMARK  status: ('A' for Active; 'I' for Inactive)
ROOT
HETATM    1  C1  UNL     1     -35.532   5.514   4.101  1.00 20.00     0.177 A 
HETATM    2  C2  UNL     1     -34.390   4.599   3.842  1.00 20.00     0.218 A 
HETATM    3  O3  UNL     1     -33.518   6.959   4.897  1.00 20.00    -0.226 OA
HETATM    4  O4  UNL     1     -34.540   5.183   6.489  1.00 20.00    -0.226 OA
HETATM    5  S5  UNL     1     -34.053   5.659   5.219  1.00 20.00     0.165 S 
HETATM    6 CL6  UNL     1     -33.440   4.797   2.392  1.00 20.00    -0.107 Cl
ENDROOT
TORSDOF 0
