REMARK  2 active torsions:
REMARK  status: ('A' for Active; 'I' for Inactive)
REMARK    1  A    between atoms: C7_7  and  C9_9 
REMARK    2  A    between atoms: C8_8  and  C10_10 
ROOT
HETATM    1  C1  UNL     1     -32.782   8.380   1.792  1.00 20.00     0.012 C 
HETATM    2  C2  UNL     1     -32.980   7.473   2.553  1.00 20.00    -0.112 C 
HETATM    3  C6  UNL     1     -33.216   6.389   3.464  1.00 20.00     0.074 A 
HETATM    4  C9  UNL     1     -34.650   6.055   3.814  1.00 20.00     0.015 A 
HETATM    5  C10 UNL     1     -33.746   6.721   4.841  1.00 20.00     0.015 A 
ENDROOT
BRANCH   4   6
HETATM    6  C7  UNL     1     -35.122   4.780   4.528  1.00 20.00     0.014 C 
HETATM    7  C3  UNL     1     -33.983   3.818   4.809  1.00 20.00    -0.025 C 
HETATM    8  C4  UNL     1     -33.185   4.406   5.717  1.00 20.00    -0.025 C 
HETATM    9  C8  UNL     1     -33.794   5.758   6.037  1.00 20.00     0.014 C 
HETATM   10  C5  UNL     1     -35.275   5.322   5.965  1.00 20.00     0.018 C 
ENDBRANCH   4   6
TORSDOF 2
