REMARK  2 active torsions:
REMARK  status: ('A' for Active; 'I' for Inactive)
REMARK    1  A    between atoms: C1_1  and  C2_2 
REMARK    2  A    between atoms: C1_1  and  C3_3 
ROOT
HETATM    1  C2  UNL     1     -32.934   6.609   3.044  1.00 20.00     0.043 A 
HETATM    2  C4  UNL     1     -33.685   6.997   4.217  1.00 20.00     0.013 A 
HETATM    3  C5  UNL     1     -34.119   5.815   3.360  1.00 20.00    -0.023 A 
HETATM    4  C8  UNL     1     -33.093   6.832   5.574  1.00 20.00     0.012 C 
HETATM    5  C9  UNL     1     -33.879   4.404   3.836  1.00 20.00     0.017 C 
HETATM    6  C10 UNL     1     -35.393   5.974   2.565  1.00 20.00     0.017 C 
ENDROOT
BRANCH   1   7
HETATM    7  C1  UNL     1     -32.819   7.376   2.006  1.00 20.00    -0.159 C 
BRANCH   7   8
HETATM    8  C3  UNL     1     -32.702   8.148   0.960  1.00 20.00     0.022 C 
HETATM    9  C6  UNL     1     -33.340   9.507   0.890  1.00 20.00     0.029 C 
HETATM   10  C7  UNL     1     -31.918   7.742  -0.255  1.00 20.00     0.029 C 
ENDBRANCH   7   8
ENDBRANCH   1   7
TORSDOF 2
