REMARK  0 active torsions:
REMARK  status: ('A' for Active; 'I' for Inactive)
ROOT
HETATM    1  C1  UNL     1     -33.522   3.792   5.303  1.00 20.00     0.005 C 
HETATM    2  C2  UNL     1     -33.542   4.274   2.856  1.00 20.00     0.005 C 
HETATM    3  C3  UNL     1     -33.003   5.166   5.769  1.00 20.00     0.005 C 
HETATM    4  C4  UNL     1     -33.026   5.724   2.938  1.00 20.00     0.005 C 
HETATM    5  C5  UNL     1     -35.379   5.740   5.603  1.00 20.00     0.010 C 
HETATM    6  C6  UNL     1     -35.397   6.185   3.347  1.00 20.00     0.010 C 
HETATM    7  C7  UNL     1     -34.440   3.917   4.064  1.00 20.00    -0.010 C 
HETATM    8  C8  UNL     1     -33.966   6.286   5.335  1.00 20.00    -0.010 C 
HETATM    9  C9  UNL     1     -33.979   6.592   3.780  1.00 20.00    -0.010 C 
HETATM   10  C10 UNL     1     -35.591   4.990   4.285  1.00 20.00    -0.010 C 
ENDROOT
TORSDOF 0
