REMARK  4 active torsions:
REMARK  status: ('A' for Active; 'I' for Inactive)
REMARK    1  A    between atoms: C3_3  and  C5_5 
REMARK    2  A    between atoms: C5_5  and  N8_8 
REMARK    3  A    between atoms: C6_6  and  C7_7 
REMARK    4  A    between atoms: C6_6  and  N8_8 
ROOT
HETATM    1  N8  UNL     1     -32.769   6.527   2.783  1.00 20.00     0.089 N 
HETATM    2  H23 UNL     1     -32.034   6.365   3.480  1.00 20.00     0.316 HD
ENDROOT
BRANCH   1   3
HETATM    3  C5  UNL     1     -32.578   7.801   2.145  1.00 20.00     0.274 C 
BRANCH   3   4
HETATM    4  C3  UNL     1     -33.298   7.865   0.843  1.00 20.00     0.018 A 
HETATM    5  C1  UNL     1     -33.628   9.199   0.226  1.00 20.00     0.011 A 
HETATM    6  C2  UNL     1     -32.576   8.321  -0.398  1.00 20.00    -0.013 A 
HETATM    7  C4  UNL     1     -32.837   7.650  -1.703  1.00 20.00     0.010 C 
ENDBRANCH   3   4
ENDBRANCH   1   3
BRANCH   1   8
HETATM    8  C6  UNL     1     -34.067   6.449   3.456  1.00 20.00     0.340 C 
BRANCH   8   9
HETATM    9  C7  UNL     1     -34.055   5.361   4.509  1.00 20.00     0.381 C 
HETATM   10  F9  UNL     1     -34.287   4.156   3.932  1.00 20.00    -0.213 F 
HETATM   11  F10 UNL     1     -35.076   5.574   5.379  1.00 20.00    -0.213 F 
ENDBRANCH   8   9
ENDBRANCH   1   8
TORSDOF 4
