REMARK  3 active torsions:
REMARK  status: ('A' for Active; 'I' for Inactive)
REMARK       I    between atoms: C1_1  and  N10_10 
REMARK    1  A    between atoms: C7_7  and  C8_8 
REMARK    2  A    between atoms: C7_7  and  N10_10 
REMARK    3  A    between atoms: C8_8  and  C9_9 
ROOT
HETATM    1  C7  UNL     1     -33.003   7.705   3.621  1.00 20.00     0.127 C 
ENDROOT
BRANCH   1   2
HETATM    2  C8  UNL     1     -33.115   6.431   4.486  1.00 20.00     0.007 C 
HETATM    3  C3  UNL     1     -33.309   6.833   5.960  1.00 20.00     0.012 C 
BRANCH   2   4
HETATM    4  C9  UNL     1     -34.208   5.421   3.969  1.00 20.00    -0.047 C 
HETATM    5  C4  UNL     1     -34.229   4.155   4.855  1.00 20.00     0.015 C 
HETATM    6  C5  UNL     1     -33.960   4.986   2.512  1.00 20.00     0.015 C 
HETATM    7  C6  UNL     1     -35.615   6.053   4.051  1.00 20.00     0.015 C 
ENDBRANCH   2   4
ENDBRANCH   1   2
BRANCH   1   8
HETATM    8  N10 UNL     1     -32.383   7.450   2.347  1.00 20.00    -0.361 N 
HETATM    9  C1  UNL     1     -32.673   8.172   1.201  1.00 20.00     0.213 C 
HETATM   10  C2  UNL     1     -31.910   7.737  -0.006  1.00 20.00     0.117 C 
HETATM   11  O11 UNL     1     -33.471   9.097   1.111  1.00 20.00    -0.274 OA
HETATM   12  H30 UNL     1     -31.696   6.701   2.285  1.00 20.00     0.162 HD
ENDBRANCH   1   8
TORSDOF 3
