REMARK  1 active torsions:
REMARK  status: ('A' for Active; 'I' for Inactive)
REMARK    1  A    between atoms: C4_4  and  C8_8 
ROOT
HETATM    1  C1  UNL     1     -32.840   7.110   1.735  1.00 20.00     0.137 C 
HETATM    2  C2  UNL     1     -33.417   5.850   2.329  1.00 20.00     0.095 C 
HETATM    3  C3  UNL     1     -32.994   8.344   2.583  1.00 20.00     0.152 C 
HETATM    4  C4  UNL     1     -33.389   6.029   3.841  1.00 20.00     0.062 C 
HETATM    5  O9  UNL     1     -32.329   7.139   0.619  1.00 20.00    -0.297 OA
HETATM    6  S10 UNL     1     -33.801   7.777   4.099  1.00 20.00    -0.156 SA
ENDROOT
BRANCH   4   7
HETATM    7  C8  UNL     1     -34.369   5.116   4.558  1.00 20.00    -0.038 C 
HETATM    8  C5  UNL     1     -34.317   5.394   6.067  1.00 20.00     0.015 C 
HETATM    9  C6  UNL     1     -33.991   3.651   4.294  1.00 20.00     0.015 C 
HETATM   10  C7  UNL     1     -35.789   5.380   4.038  1.00 20.00     0.015 C 
ENDBRANCH   4   7
TORSDOF 1
