REMARK  2 active torsions:
REMARK  status: ('A' for Active; 'I' for Inactive)
REMARK    1  A    between atoms: C5_5  and  C7_7 
REMARK    2  A    between atoms: C6_6  and  C7_7 
ROOT
HETATM    1  C1  UNL     1     -34.530   5.017   4.360  1.00 20.00     0.033 C 
HETATM    2  C2  UNL     1     -35.164   5.444   5.667  1.00 20.00     0.168 C 
HETATM    3  C3  UNL     1     -33.446   6.936   5.163  1.00 20.00     0.172 C 
HETATM    4  C5  UNL     1     -33.938   6.319   3.865  1.00 20.00     0.014 C 
HETATM    5  O8  UNL     1     -34.363   6.517   6.186  1.00 20.00    -0.391 OA
ENDROOT
BRANCH   4   6
HETATM    6  C7  UNL     1     -32.855   6.152   2.818  1.00 20.00     0.041 C 
BRANCH   6   7
HETATM    7  C6  UNL     1     -32.326   7.470   2.340  1.00 20.00     0.145 A 
HETATM    8  C4  UNL     1     -33.033   8.248   1.266  1.00 20.00     0.200 A 
HETATM    9  O9  UNL     1     -31.860   7.468   0.987  1.00 20.00    -0.381 OA
ENDBRANCH   6   7
ENDBRANCH   4   6
TORSDOF 2
