REMARK  1 active torsions:
REMARK  status: ('A' for Active; 'I' for Inactive)
REMARK    1  A    between atoms: C2_2  and  C6_6 
ROOT
HETATM    1  C1  UNL     1     -32.969   7.564   3.181  1.00 20.00     0.011 C 
HETATM    2  C2  UNL     1     -32.918   7.122   1.914  1.00 20.00     0.026 C 
HETATM    3  C3  UNL     1     -33.323   6.666   4.329  1.00 20.00     0.195 C 
HETATM    4  C4  UNL     1     -33.186   5.672   1.607  1.00 20.00     0.069 C 
HETATM    5  C5  UNL     1     -33.128   4.813   2.868  1.00 20.00     0.172 C 
HETATM    6  O7  UNL     1     -33.897   5.425   3.902  1.00 20.00    -0.387 OA
ENDROOT
BRANCH   2   7
HETATM    7  C6  UNL     1     -32.604   8.016   0.754  1.00 20.00     0.413 C 
HETATM    8  F8  UNL     1     -32.619   7.327  -0.405  1.00 20.00    -0.166 F 
HETATM    9  F9  UNL     1     -33.506   9.014   0.654  1.00 20.00    -0.166 F 
HETATM   10  F10 UNL     1     -31.384   8.574   0.887  1.00 20.00    -0.166 F 
ENDBRANCH   2   7
TORSDOF 1
