REMARK  0 active torsions:
REMARK  status: ('A' for Active; 'I' for Inactive)
ROOT
HETATM    1  C1  UNL     1     -33.673   6.591   3.381  1.00 20.00     0.221 C 
HETATM    2  C2  UNL     1     -35.935   5.548   4.162  1.00 20.00     0.020 C 
HETATM    3  C3  UNL     1     -34.295   4.228   4.299  1.00 20.00     0.020 C 
HETATM    4  C4  UNL     1     -34.108   6.306   5.836  1.00 20.00     0.127 C 
HETATM    5  C5  UNL     1     -34.648   5.370   3.292  1.00 20.00     0.078 C 
HETATM    6  C6  UNL     1     -34.991   5.157   5.339  1.00 20.00     0.005 C 
HETATM    7  N7  UNL     1     -33.473   6.976   4.702  1.00 20.00    -0.360 N 
HETATM    8  O8  UNL     1     -33.137   7.157   2.428  1.00 20.00    -0.273 OA
HETATM    9  H17 UNL     1     -32.857   7.761   4.889  1.00 20.00     0.162 HD
ENDROOT
TORSDOF 0
