REMARK  0 active torsions:
REMARK  status: ('A' for Active; 'I' for Inactive)
ROOT
HETATM    1  C1  UNL     1     -34.218   4.174   3.799  1.00 20.00     0.102 C 
HETATM    2  C2  UNL     1     -33.243   5.781   2.237  1.00 20.00     0.050 A 
HETATM    3  C3  UNL     1     -32.590   7.982   2.991  1.00 20.00     0.069 A 
HETATM    4  C4  UNL     1     -33.667   5.464   3.528  1.00 20.00     0.087 A 
HETATM    5  C5  UNL     1     -33.014   7.665   4.282  1.00 20.00     0.158 A 
HETATM    6  C6  UNL     1     -33.552   6.406   4.550  1.00 20.00     0.175 A 
HETATM    7  C7  UNL     1     -32.705   7.040   1.969  1.00 20.00     0.038 A 
HETATM    8  N8  UNL     1     -34.665   3.126   4.019  1.00 20.00    -0.191 NA
HETATM    9  F9  UNL     1     -32.903   8.569   5.263  1.00 20.00    -0.203 F 
HETATM   10  F10 UNL     1     -33.954   6.116   5.796  1.00 20.00    -0.201 F 
HETATM   11 CL11 UNL     1     -32.184   7.431   0.375  1.00 20.00    -0.084 Cl
ENDROOT
TORSDOF 0
