REMARK  1 active torsions:
REMARK  status: ('A' for Active; 'I' for Inactive)
REMARK    1  A    between atoms: C2_2  and  C6_6 
ROOT
HETATM    1  C1  UNL     1     -33.542   6.399   4.494  1.00 20.00     0.139 C 
HETATM    2  C4  UNL     1     -34.784   5.731   5.102  1.00 20.00     0.081 C 
HETATM    3  C5  UNL     1     -35.010   5.037   3.742  1.00 20.00     0.028 C 
HETATM    4  C6  UNL     1     -33.654   5.576   3.183  1.00 20.00     0.035 C 
HETATM    5  C8  UNL     1     -32.563   4.529   3.011  1.00 20.00     0.027 C 
HETATM    6  O9  UNL     1     -32.769   7.241   4.901  1.00 20.00    -0.297 OA
ENDROOT
BRANCH   4   7
HETATM    7  C2  UNL     1     -33.796   6.476   2.012  1.00 20.00    -0.014 C 
HETATM    8  C3  UNL     1     -32.884   7.395   1.663  1.00 20.00    -0.034 C 
HETATM    9  C7  UNL     1     -33.026   8.300   0.485  1.00 20.00     0.036 C 
ENDBRANCH   4   7
TORSDOF 1
