REMARK  1 active torsions:
REMARK  status: ('A' for Active; 'I' for Inactive)
REMARK    1  A    between atoms: C5_5  and  C6_6 
ROOT
HETATM    1  C1  UNL     1     -34.735   4.783   4.956  1.00 20.00     0.078 C 
HETATM    2  C2  UNL     1     -34.281   4.056   3.931  1.00 20.00    -0.018 C 
HETATM    3  C3  UNL     1     -34.315   6.187   5.123  1.00 20.00     0.283 C 
HETATM    4  C4  UNL     1     -33.409   4.646   2.875  1.00 20.00     0.061 C 
HETATM    5  C5  UNL     1     -33.693   6.139   2.780  1.00 20.00     0.149 C 
HETATM    6  O7  UNL     1     -34.543   6.791   6.165  1.00 20.00    -0.260 OA
HETATM    7  O8  UNL     1     -33.637   6.750   4.087  1.00 20.00    -0.311 OA
ENDROOT
BRANCH   5   8
HETATM    8  C6  UNL     1     -32.678   6.843   1.891  1.00 20.00     0.147 C 
HETATM    9 CL9  UNL     1     -33.043   8.576   1.793  1.00 20.00    -0.128 Cl
ENDBRANCH   5   8
TORSDOF 1
