REMARK  0 active torsions:
REMARK  status: ('A' for Active; 'I' for Inactive)
ROOT
HETATM    1  C1  UNL     1     -32.522   6.699   3.116  1.00 20.00     0.088 C 
HETATM    2  C2  UNL     1     -34.535   6.411   6.295  1.00 20.00     0.001 C 
HETATM    3  C3  UNL     1     -33.296   7.103   5.666  1.00 20.00     0.010 C 
HETATM    4  C4  UNL     1     -35.169   5.543   5.176  1.00 20.00     0.007 C 
HETATM    5  C5  UNL     1     -34.114   5.199   2.716  1.00 20.00     0.153 C 
HETATM    6  C6  UNL     1     -33.529   6.890   4.196  1.00 20.00     0.031 C 
HETATM    7  C7  UNL     1     -34.030   5.459   4.196  1.00 20.00     0.014 C 
HETATM    8  N8  UNL     1     -32.835   5.806   2.220  1.00 20.00    -0.305 NA
ENDROOT
TORSDOF 0
