REMARK  2 active torsions:
REMARK  status: ('A' for Active; 'I' for Inactive)
REMARK    1  A    between atoms: C1_1  and  C3_3 
REMARK    2  A    between atoms: C2_2  and  C4_4 
ROOT
HETATM    1  C4  UNL     1     -33.299   6.704   3.883  1.00 20.00     0.097 C 
HETATM    2  C5  UNL     1     -34.432   6.676   4.943  1.00 20.00     0.074 C 
HETATM    3  C6  UNL     1     -33.750   5.290   3.429  1.00 20.00     0.315 C 
HETATM    4  C7  UNL     1     -35.106   5.532   4.143  1.00 20.00     0.312 C 
HETATM    5  C8  UNL     1     -33.996   6.322   6.358  1.00 20.00     0.017 C 
HETATM    6  F10 UNL     1     -33.829   5.077   2.096  1.00 20.00    -0.199 F 
HETATM    7  F11 UNL     1     -33.017   4.271   3.936  1.00 20.00    -0.199 F 
HETATM    8  F12 UNL     1     -36.117   5.921   3.331  1.00 20.00    -0.199 F 
HETATM    9  F13 UNL     1     -35.573   4.490   4.867  1.00 20.00    -0.199 F 
ENDROOT
BRANCH   1  10
HETATM   10  C2  UNL     1     -33.421   7.766   2.858  1.00 20.00    -0.012 C 
HETATM   11  C1  UNL     1     -32.662   7.817   1.758  1.00 20.00     0.038 C 
BRANCH  11  12
HETATM   12  C3  UNL     1     -32.861   8.919   0.797  1.00 20.00     0.258 C 
HETATM   13  O9  UNL     1     -32.194   9.016  -0.226  1.00 20.00    -0.302 OA
ENDBRANCH  11  12
ENDBRANCH   1  10
TORSDOF 2
