REMARK  1 active torsions:
REMARK  status: ('A' for Active; 'I' for Inactive)
REMARK    1  A    between atoms: C7_7  and  C8_8 
ROOT
HETATM    1  C4  UNL     1     -33.336   5.347   2.334  1.00 20.00     0.038 C 
HETATM    2  C5  UNL     1     -33.750   4.150   3.189  1.00 20.00     0.270 C 
HETATM    3  C6  UNL     1     -34.161   5.565   5.102  1.00 20.00     0.307 C 
HETATM    4  C8  UNL     1     -32.776   6.481   3.198  1.00 20.00     0.027 C 
HETATM    5  C9  UNL     1     -33.753   6.814   4.327  1.00 20.00     0.202 C 
HETATM    6  N10 UNL     1     -34.712   4.539   4.220  1.00 20.00     0.086 N 
HETATM    7  F11 UNL     1     -33.142   7.670   5.193  1.00 20.00    -0.247 F 
HETATM    8  H27 UNL     1     -35.550   4.904   3.769  1.00 20.00     0.315 HD
ENDROOT
BRANCH   4   9
HETATM    9  C7  UNL     1     -32.530   7.719   2.335  1.00 20.00    -0.008 C 
HETATM   10  C2  UNL     1     -33.767   8.324   1.620  1.00 20.00     0.005 C 
HETATM   11  C1  UNL     1     -32.835   8.631   0.430  1.00 20.00     0.001 C 
HETATM   12  C3  UNL     1     -31.941   7.475   0.922  1.00 20.00     0.005 C 
ENDBRANCH   4   9
TORSDOF 1
