REMARK  1 active torsions:
REMARK  status: ('A' for Active; 'I' for Inactive)
REMARK    1  A    between atoms: C2_2  and  O6_6 
ROOT
HETATM    1  C1  UNL     1     -35.473   5.952   4.333  1.00 20.00     0.106 A 
HETATM    2  C2  UNL     1     -34.102   6.558   4.470  1.00 20.00     0.111 A 
HETATM    3  C3  UNL     1     -34.301   5.081   4.700  1.00 20.00     0.212 A 
HETATM    4  C4  UNL     1     -33.804   7.463   5.619  1.00 20.00     0.051 C 
HETATM    5  F7  UNL     1     -34.264   4.649   6.022  1.00 20.00    -0.222 F 
HETATM    6 CL8  UNL     1     -33.720   3.922   3.517  1.00 20.00    -0.079 Cl
ENDROOT
BRANCH   2   7
HETATM    7  O6  UNL     1     -33.473   6.963   3.241  1.00 20.00    -0.381 OA
HETATM    8  C5  UNL     1     -32.073   7.082   3.407  1.00 20.00     0.202 C 
ENDBRANCH   2   7
TORSDOF 1
