REMARK  2 active torsions:
REMARK  status: ('A' for Active; 'I' for Inactive)
REMARK    1  A    between atoms: C1_1  and  C7_7 
REMARK    2  A    between atoms: C4_4  and  C7_7 
ROOT
HETATM    1  C2  UNL     1     -34.967   4.905   6.044  1.00 20.00     0.197 C 
HETATM    2  C3  UNL     1     -34.296   6.238   6.236  1.00 20.00     0.197 C 
HETATM    3  C4  UNL     1     -34.359   5.738   4.025  1.00 20.00     0.169 C 
HETATM    4  C5  UNL     1     -35.494   5.913   3.024  1.00 20.00     0.080 C 
HETATM    5  O9  UNL     1     -34.542   4.506   4.741  1.00 20.00    -0.353 OA
HETATM    6  O10 UNL     1     -34.386   6.841   4.945  1.00 20.00    -0.353 OA
ENDROOT
BRANCH   3   7
HETATM    7  C7  UNL     1     -33.006   5.698   3.326  1.00 20.00     0.105 C 
HETATM    8  C6  UNL     1     -32.935   4.542   2.335  1.00 20.00     0.023 C 
BRANCH   7   9
HETATM    9  C1  UNL     1     -32.756   7.033   2.651  1.00 20.00     0.240 C 
HETATM   10  O8  UNL     1     -32.540   7.180   1.453  1.00 20.00    -0.306 OA
ENDBRANCH   7   9
ENDBRANCH   3   7
TORSDOF 2
