REMARK  0 active torsions:
REMARK  status: ('A' for Active; 'I' for Inactive)
ROOT
HETATM    1  C1  UNL     1     -34.251   5.924   3.527  1.00 20.00     0.135 C 
HETATM    2  C2  UNL     1     -35.436   5.691   4.436  1.00 20.00     0.110 C 
HETATM    3  C3  UNL     1     -33.123   7.196   5.321  1.00 20.00     0.179 C 
HETATM    4  C4  UNL     1     -33.443   7.176   3.828  1.00 20.00     0.075 C 
HETATM    5  C5  UNL     1     -35.025   5.845   5.898  1.00 20.00     0.124 C 
HETATM    6  C6  UNL     1     -32.173   7.258   2.992  1.00 20.00     0.020 C 
HETATM    7  C7  UNL     1     -34.261   4.635   6.432  1.00 20.00     0.040 C 
HETATM    8  O8  UNL     1     -34.031   5.196   2.562  1.00 20.00    -0.297 OA
HETATM    9  O9  UNL     1     -34.307   7.067   6.109  1.00 20.00    -0.385 OA
ENDROOT
TORSDOF 0
