REMARK  2 active torsions:
REMARK  status: ('A' for Active; 'I' for Inactive)
REMARK    1  A    between atoms: C4_4  and  C8_8 
REMARK    2  A    between atoms: C5_5  and  C9_9 
ROOT
HETATM    1  C1  UNL     1     -34.633   5.887   5.449  1.00 20.00     0.139 C 
HETATM    2  C6  UNL     1     -33.557   6.793   5.999  1.00 20.00     0.080 C 
HETATM    3  C7  UNL     1     -32.872   7.298   4.733  1.00 20.00     0.017 C 
HETATM    4  C8  UNL     1     -33.997   7.328   3.693  1.00 20.00     0.027 C 
HETATM    5  C9  UNL     1     -34.773   6.006   3.933  1.00 20.00     0.041 C 
HETATM    6  C10 UNL     1     -36.236   6.110   3.510  1.00 20.00     0.028 C 
HETATM    7  O11 UNL     1     -35.306   5.143   6.154  1.00 20.00    -0.297 OA
ENDROOT
BRANCH   5   8
HETATM    8  C5  UNL     1     -34.139   4.770   3.359  1.00 20.00    -0.019 C 
HETATM    9  C3  UNL     1     -34.064   4.507   2.051  1.00 20.00     0.008 C 
ENDBRANCH   5   8
BRANCH   4  10
HETATM   10  C4  UNL     1     -33.507   7.555   2.300  1.00 20.00    -0.031 C 
HETATM   11  C2  UNL     1     -32.324   7.130   1.844  1.00 20.00     0.007 C 
ENDBRANCH   4  10
TORSDOF 2
