REMARK  0 active torsions:
REMARK  status: ('A' for Active; 'I' for Inactive)
ROOT
HETATM    1  C1  UNL     1     -36.271   5.569   4.247  1.00 20.00     0.064 C 
HETATM    2  C2  UNL     1     -33.250   6.751   4.386  1.00 20.00     0.012 C 
HETATM    3  C3  UNL     1     -33.054   6.246   3.161  1.00 20.00     0.090 C 
HETATM    4  C4  UNL     1     -34.142   6.108   5.410  1.00 20.00     0.049 C 
HETATM    5  C5  UNL     1     -33.680   4.971   2.688  1.00 20.00     0.071 C 
HETATM    6  C6  UNL     1     -34.289   4.140   3.824  1.00 20.00     0.026 C 
HETATM    7  C7  UNL     1     -35.047   4.999   4.845  1.00 20.00     0.096 C 
HETATM    8  N8  UNL     1     -37.233   6.017   3.777  1.00 20.00    -0.197 NA
HETATM    9  F9  UNL     1     -32.232   6.909   2.317  1.00 20.00    -0.211 F 
ENDROOT
TORSDOF 0
