REMARK  2 active torsions:
REMARK  status: ('A' for Active; 'I' for Inactive)
REMARK    1  A    between atoms: C2_2  and  C6_6 
REMARK    2  A    between atoms: C3_3  and  C6_6 
ROOT
HETATM    1  C1  UNL     1     -33.098   7.184   2.430  1.00 20.00    -0.110 C 
HETATM    2  C2  UNL     1     -33.489   6.421   3.271  1.00 20.00    -0.092 C 
HETATM    3  C4  UNL     1     -32.624   8.114   1.406  1.00 20.00     0.112 C 
ENDROOT
BRANCH   2   4
HETATM    4  C6  UNL     1     -33.966   5.483   4.304  1.00 20.00     0.162 C 
HETATM    5  C5  UNL     1     -35.240   4.788   3.839  1.00 20.00     0.035 C 
BRANCH   4   6
HETATM    6  C3  UNL     1     -34.137   6.233   5.639  1.00 20.00     0.188 C 
HETATM    7  O7  UNL     1     -35.015   5.741   6.406  1.00 20.00    -0.647 OA
HETATM    8  O8  UNL     1     -33.395   7.238   5.819  1.00 20.00    -0.647 OA
ENDBRANCH   4   6
ENDBRANCH   2   4
TORSDOF 2
