REMARK  2 active torsions:
REMARK  status: ('A' for Active; 'I' for Inactive)
REMARK    1  A    between atoms: C3_3  and  C4_4 
REMARK    2  A    between atoms: C4_4  and  S7_7 
ROOT
HETATM    1  C4  UNL     1     -33.751   7.744   1.808  1.00 20.00     0.162 C 
ENDROOT
BRANCH   1   2
HETATM    2  C3  UNL     1     -32.642   8.349   1.019  1.00 20.00     0.001 A 
HETATM    3  C1  UNL     1     -32.009   7.582  -0.110  1.00 20.00     0.006 A 
HETATM    4  C2  UNL     1     -32.871   8.778  -0.404  1.00 20.00     0.006 A 
ENDBRANCH   1   2
BRANCH   1   5
HETATM    5  S7  UNL     1     -33.160   6.595   3.021  1.00 20.00     0.230 S 
HETATM    6  O5  UNL     1     -32.277   7.295   3.929  1.00 20.00    -0.211 OA
HETATM    7  O6  UNL     1     -32.759   5.378   2.346  1.00 20.00    -0.211 OA
HETATM    8 CL8  UNL     1     -34.781   6.067   4.154  1.00 20.00     0.018 Cl
ENDBRANCH   1   5
TORSDOF 2
