REMARK  1 active torsions:
REMARK  status: ('A' for Active; 'I' for Inactive)
REMARK    1  A    between atoms: C1_1  and  C7_7 
ROOT
HETATM    1  C2  UNL     1     -32.072   7.799   4.002  1.00 20.00     0.007 C 
HETATM    2  C3  UNL     1     -32.660   6.458   4.443  1.00 20.00     0.020 C 
HETATM    3  C4  UNL     1     -34.710   6.712   3.002  1.00 20.00     0.026 C 
HETATM    4  C5  UNL     1     -32.849   8.534   2.951  1.00 20.00    -0.002 A 
HETATM    5  C6  UNL     1     -34.179   8.006   2.463  1.00 20.00    -0.000 A 
HETATM    6  C7  UNL     1     -34.189   6.425   4.413  1.00 20.00     0.045 C 
HETATM    7  C8  UNL     1     -32.995   8.097   1.502  1.00 20.00    -0.040 A 
HETATM    8  C9  UNL     1     -34.825   7.319   5.474  1.00 20.00     0.027 C 
HETATM    9  C10 UNL     1     -33.053   9.195   0.464  1.00 20.00     0.015 C 
HETATM   10  C11 UNL     1     -32.291   6.865   1.000  1.00 20.00     0.015 C 
ENDROOT
BRANCH   6  11
HETATM   11  C1  UNL     1     -34.582   4.987   4.741  1.00 20.00     0.181 C 
HETATM   12  O12 UNL     1     -34.693   4.219   3.746  1.00 20.00    -0.647 OA
HETATM   13  O13 UNL     1     -34.746   4.750   5.971  1.00 20.00    -0.647 OA
ENDBRANCH   6  11
TORSDOF 1
