REMARK  2 active torsions:
REMARK  status: ('A' for Active; 'I' for Inactive)
REMARK    1  A    between atoms: C1_1  and  C5_5 
REMARK    2  A    between atoms: C4_4  and  C5_5 
ROOT
HETATM    1  C2  UNL     1     -35.513   5.837   4.160  1.00 20.00     0.032 C 
HETATM    2  C3  UNL     1     -34.198   3.738   3.825  1.00 20.00     0.032 C 
HETATM    3  C5  UNL     1     -34.107   5.228   4.173  1.00 20.00     0.100 C 
ENDROOT
BRANCH   3   4
HETATM    4  C1  UNL     1     -33.176   5.969   3.170  1.00 20.00     0.186 C 
HETATM    5  O6  UNL     1     -33.169   5.518   1.988  1.00 20.00    -0.647 OA
HETATM    6  O7  UNL     1     -32.540   6.958   3.637  1.00 20.00    -0.647 OA
ENDBRANCH   3   4
BRANCH   3   7
HETATM    7  C4  UNL     1     -33.472   5.406   5.554  1.00 20.00     0.371 C 
HETATM    8  F8  UNL     1     -34.227   4.808   6.510  1.00 20.00    -0.213 F 
HETATM    9  F9  UNL     1     -33.399   6.721   5.882  1.00 20.00    -0.213 F 
ENDBRANCH   3   7
TORSDOF 2
