REMARK  0 active torsions:
REMARK  status: ('A' for Active; 'I' for Inactive)
ROOT
HETATM    1  C1  UNL     1     -33.045   9.254   0.926  1.00 20.00    -0.024 C 
HETATM    2  C2  UNL     1     -32.721   8.461  -0.122  1.00 20.00    -0.024 C 
HETATM    3  C3  UNL     1     -33.496   7.066   3.899  1.00 20.00     0.272 C 
HETATM    4  C4  UNL     1     -33.447   5.370   2.360  1.00 20.00     0.272 C 
HETATM    5  C5  UNL     1     -32.111   8.530   1.866  1.00 20.00     0.031 C 
HETATM    6  C6  UNL     1     -32.124   7.380   0.772  1.00 20.00     0.031 C 
HETATM    7  C7  UNL     1     -32.508   7.431   2.810  1.00 20.00     0.108 C 
HETATM    8  C8  UNL     1     -33.189   6.677   1.615  1.00 20.00     0.108 C 
HETATM    9  O9  UNL     1     -33.908   7.719   4.845  1.00 20.00    -0.264 OA
HETATM   10  O10 UNL     1     -33.396   4.215   1.963  1.00 20.00    -0.264 OA
HETATM   11  O11 UNL     1     -33.843   5.730   3.657  1.00 20.00    -0.244 OA
ENDROOT
TORSDOF 0
