REMARK  1 active torsions:
REMARK  status: ('A' for Active; 'I' for Inactive)
REMARK    1  A    between atoms: N3_3  and  P4_4 
ROOT
HETATM    1  C1  UNL     1     -33.286   4.518   1.914  1.00 20.00     0.117 C 
HETATM    2  C2  UNL     1     -32.402   6.729   2.128  1.00 20.00     0.117 C 
HETATM    3  N3  UNL     1     -33.010   5.610   2.853  1.00 20.00    -0.274 NA
ENDROOT
BRANCH   3   4
HETATM    4  P4  UNL     1     -34.325   6.037   3.867  1.00 20.00     0.158 P 
HETATM    5 CL5  UNL     1     -34.923   4.401   5.044  1.00 20.00    -0.059 Cl
HETATM    6 CL6  UNL     1     -33.687   7.287   5.432  1.00 20.00    -0.059 Cl
ENDBRANCH   3   4
TORSDOF 1
