REMARK  1 active torsions:
REMARK  status: ('A' for Active; 'I' for Inactive)
REMARK    1  A    between atoms: C5_5  and  P6_6 
ROOT
HETATM    1  C1  UNL     1     -34.369   4.803   6.356  1.00 20.00     0.021 C 
HETATM    2  C2  UNL     1     -33.782   7.091   5.499  1.00 20.00     0.021 C 
HETATM    3  C3  UNL     1     -35.523   5.716   4.320  1.00 20.00     0.021 C 
HETATM    4  C5  UNL     1     -34.201   5.669   5.099  1.00 20.00    -0.015 C 
ENDROOT
BRANCH   4   5
HETATM    5  P6  UNL     1     -32.858   4.918   4.014  1.00 20.00    -0.013 P 
HETATM    6  C4  UNL     1     -33.637   3.288   3.731  1.00 20.00     0.062 C 
HETATM    7 CL7  UNL     1     -33.314   5.886   2.215  1.00 20.00    -0.096 Cl
ENDBRANCH   4   5
TORSDOF 1
