REMARK  1 active torsions:
REMARK  status: ('A' for Active; 'I' for Inactive)
REMARK    1  A    between atoms: C1_1  and  C3_3 
ROOT
HETATM    1  C1  UNL     1     -33.273   6.878   3.937  1.00 20.00     0.064 C 
HETATM    2  C2  UNL     1     -34.112   6.498   4.909  1.00 20.00     0.184 C 
HETATM    3  F4  UNL     1     -33.997   7.029   6.146  1.00 20.00    -0.193 F 
HETATM    4 CL5  UNL     1     -35.350   5.335   4.617  1.00 20.00    -0.052 Cl
ENDROOT
BRANCH   1   5
HETATM    5  C3  UNL     1     -33.325   6.345   2.540  1.00 20.00     0.205 C 
HETATM    6 CL6  UNL     1     -32.055   7.113   1.558  1.00 20.00    -0.104 Cl
HETATM    7 CL7  UNL     1     -33.096   4.581   2.561  1.00 20.00    -0.104 Cl
ENDBRANCH   1   5
TORSDOF 1
