REMARK  3 active torsions:
REMARK  status: ('A' for Active; 'I' for Inactive)
REMARK    1  A    between atoms: C3_3  and  C4_4 
REMARK    2  A    between atoms: C4_4  and  C5_5 
REMARK    3  A    between atoms: C7_7  and  O10_10 
ROOT
HETATM    1  C1  UNL     1     -33.982   6.132   6.050  1.00 20.00     0.006 C 
HETATM    2  C2  UNL     1     -35.015   5.305   5.874  1.00 20.00    -0.023 C 
HETATM    3  C3  UNL     1     -33.370   6.460   4.790  1.00 20.00    -0.027 C 
HETATM    4  C6  UNL     1     -35.241   4.986   4.430  1.00 20.00     0.064 C 
HETATM    5  C7  UNL     1     -34.059   5.661   3.717  1.00 20.00     0.157 C 
ENDROOT
BRANCH   3   6
HETATM    6  C4  UNL     1     -32.374   7.334   4.612  1.00 20.00     0.051 C 
BRANCH   6   7
HETATM    7  C5  UNL     1     -31.876   7.538   3.239  1.00 20.00     0.259 C 
HETATM    8  O9  UNL     1     -32.598   7.411   2.257  1.00 20.00    -0.302 OA
ENDBRANCH   6   7
ENDBRANCH   3   6
BRANCH   5   9
HETATM    9  O10 UNL     1     -33.162   4.673   3.222  1.00 20.00    -0.386 OA
HETATM   10  C8  UNL     1     -33.560   4.204   1.942  1.00 20.00     0.202 C 
ENDBRANCH   5   9
TORSDOF 3
