REMARK  1 active torsions:
REMARK  status: ('A' for Active; 'I' for Inactive)
REMARK    1  A    between atoms: C5_5  and  C10_10 
ROOT
HETATM    1  C1  UNL     1     -33.489   7.147   5.090  1.00 20.00     0.027 A 
HETATM    2  C2  UNL     1     -34.012   5.330   3.603  1.00 20.00     0.027 A 
HETATM    3  C3  UNL     1     -34.060   6.404   6.111  1.00 20.00     0.116 A 
HETATM    4  C4  UNL     1     -34.558   4.668   4.691  1.00 20.00     0.116 A 
HETATM    5  C5  UNL     1     -33.469   6.592   3.815  1.00 20.00    -0.051 A 
HETATM    6  N11 UNL     1     -34.596   5.174   5.944  1.00 20.00    -0.273 NA
ENDROOT
BRANCH   5   7
HETATM    7  C10 UNL     1     -32.826   7.399   2.602  1.00 20.00     0.026 C 
HETATM    8  C8  UNL     1     -33.495   7.287   1.196  1.00 20.00     0.043 C 
HETATM    9  C6  UNL     1     -33.117   8.743   1.062  1.00 20.00    -0.088 C 
HETATM   10  C7  UNL     1     -32.945   9.551   0.014  1.00 20.00     0.014 C 
HETATM   11  C9  UNL     1     -33.017   8.948   2.555  1.00 20.00     0.043 C 
ENDBRANCH   5   7
TORSDOF 1
