REMARK  0 active torsions:
REMARK  status: ('A' for Active; 'I' for Inactive)
ROOT
HETATM    1  C1  UNL     1     -32.850   7.791   2.244  1.00 20.00     0.200 C 
HETATM    2  C2  UNL     1     -32.741   7.854   0.922  1.00 20.00     0.113 C 
HETATM    3  F3  UNL     1     -32.272   6.802   2.951  1.00 20.00    -0.219 F 
HETATM    4 CL4  UNL     1     -33.461   9.093  -0.012  1.00 20.00    -0.095 Cl
ENDROOT
TORSDOF 0
