REMARK  1 active torsions:
REMARK  status: ('A' for Active; 'I' for Inactive)
REMARK    1  A    between atoms: C1_1  and  C3_3 
ROOT
HETATM    1  C1  UNL     1     -34.086   5.925   3.654  1.00 20.00     0.181 A 
HETATM    2  C2  UNL     1     -32.758   6.245   3.030  1.00 20.00     0.247 A 
HETATM    3  O4  UNL     1     -33.410   4.989   2.805  1.00 20.00    -0.358 OA
HETATM    4 CL5  UNL     1     -32.666   7.393   1.723  1.00 20.00    -0.092 Cl
ENDROOT
BRANCH   1   5
HETATM    5  C3  UNL     1     -34.182   5.506   5.076  1.00 20.00     0.150 C 
HETATM    6 CL6  UNL     1     -34.093   6.912   6.176  1.00 20.00    -0.128 Cl
ENDBRANCH   1   5
TORSDOF 1
