REMARK  0 active torsions:
REMARK  status: ('A' for Active; 'I' for Inactive)
ROOT
HETATM    1  C1  UNL     1     -33.215   6.439   1.571  1.00 20.00     0.099 A 
HETATM    2  C2  UNL     1     -33.377   7.915   3.487  1.00 20.00     0.063 A 
HETATM    3  C3  UNL     1     -34.646   5.115   5.757  1.00 20.00     0.167 A 
HETATM    4  C4  UNL     1     -33.992   5.553   3.696  1.00 20.00     0.124 A 
HETATM    5  C5  UNL     1     -33.674   5.362   2.334  1.00 20.00     0.204 A 
HETATM    6  C6  UNL     1     -33.069   7.699   2.142  1.00 20.00     0.121 A 
HETATM    7  C7  UNL     1     -33.838   6.828   4.248  1.00 20.00     0.042 A 
HETATM    8  N8  UNL     1     -34.456   4.583   4.572  1.00 20.00    -0.249 NA
HETATM    9  O9  UNL     1     -33.838   4.176   1.896  1.00 20.00    -0.286 OA
HETATM   10  F10 UNL     1     -32.628   8.719   1.394  1.00 20.00    -0.206 F 
HETATM   11  S11 UNL     1     -34.292   6.781   5.911  1.00 20.00    -0.080 SA
ENDROOT
TORSDOF 0
