REMARK  0 active torsions:
REMARK  status: ('A' for Active; 'I' for Inactive)
ROOT
HETATM    1  C1  UNL     1     -32.605   8.286   0.027  1.00 20.00     0.012 C 
HETATM    2  C2  UNL     1     -32.657   7.643   1.039  1.00 20.00    -0.113 C 
HETATM    3  C3  UNL     1     -34.135   5.620   4.505  1.00 20.00     0.127 C 
HETATM    4  C4  UNL     1     -33.681   4.766   3.343  1.00 20.00     0.079 C 
HETATM    5  C5  UNL     1     -33.389   6.916   4.723  1.00 20.00     0.079 C 
HETATM    6  C6  UNL     1     -33.578   5.600   2.072  1.00 20.00     0.024 C 
HETATM    7  C7  UNL     1     -33.292   7.705   3.423  1.00 20.00     0.024 C 
HETATM    8  C8  UNL     1     -32.720   6.855   2.281  1.00 20.00     0.065 C 
HETATM    9  O9  UNL     1     -34.994   5.230   5.295  1.00 20.00    -0.298 OA
ENDROOT
TORSDOF 0
